
  EPA STORM WATER MANAGEMENT MODEL - VERSION 5.2 (Build 5.2.4)
  PYSWMM TOOLKIT API - VERSION v1.0 (2023-11-27)
  ------------------------------------------------------------

  
  ****************
  Analysis Options
  ****************
  Flow Units ............... LPS
  Process Models:
    Rainfall/Runoff ........ YES
    RDII ................... NO
    Snowmelt ............... YES
    Groundwater ............ NO
    Flow Routing ........... YES
    Ponding Allowed ........ NO
    Water Quality .......... NO
  Infiltration Method ...... HORTON
  Flow Routing Method ...... DYNWAVE
  Surcharge Method ......... EXTRAN
  Starting Date ............ 01/01/2000 00:00:00
  Ending Date .............. 01/01/2000 23:59:00
  Antecedent Dry Days ...... 0.0
  Report Time Step ......... 00:15:00
  Wet Time Step ............ 00:05:00
  Dry Time Step ............ 01:00:00
  Routing Time Step ........ 5.00 sec
  Variable Time Step ....... YES
  Maximum Trials ........... 8
  Number of Threads ........ 1
  Head Tolerance ........... 0.001524 m
  
  
  *********************
  Rainfall File Summary
  *********************
  Station    First        Last         Recording   Periods    Periods    Periods
  ID         Date         Date         Frequency  w/Precip    Missing    Malfunc.
  -------------------------------------------------------------------------------
  1          01/01/2000   01/01/2000       5 min         4          0          0

  
  
  **************************        Volume         Depth
  Runoff Quantity Continuity     hectare-m            mm
  **************************     ---------       -------
  Initial Snow Cover .......         0.000         0.000
  Total Precipitation ......         0.497         5.250
  Evaporation Loss .........         0.000         0.000
  Infiltration Loss ........         0.000         0.000
  Surface Runoff ...........         0.471         4.971
  Snow Removed .............         0.000         0.000
  Final Snow Cover .........         0.000         0.000
  Final Storage ............         0.000         0.000
  Continuity Error (%) .....         5.323
  
  
  **************************        Volume        Volume
  Flow Routing Continuity        hectare-m      10^6 ltr
  **************************     ---------     ---------
  Dry Weather Inflow .......         0.000         0.000
  Wet Weather Inflow .......         0.471         4.706
  Groundwater Inflow .......         0.000         0.000
  RDII Inflow ..............         0.000         0.000
  External Inflow ..........         0.000         0.000
  External Outflow .........         0.186         1.860
  Flooding Loss ............         0.264         2.645
  Evaporation Loss .........         0.000         0.000
  Exfiltration Loss ........         0.000         0.000
  Initial Stored Volume ....         0.000         0.000
  Final Stored Volume ......         0.017         0.168
  Continuity Error (%) .....         0.721
  
  
  *************************
  Highest Continuity Errors
  *************************
  Node 963 (84.57%)
  Node 567 (76.43%)
  Node 265 (57.04%)
  Node 1298 (45.18%)
  Node 253 (41.70%)
  
  
  ***************************
  Time-Step Critical Elements
  ***************************
  Link 664-663 (36.18%)
  Link 615-664 (18.30%)
  Link 1655-1206 (9.33%)
  Link 362-363 (9.21%)
  
  
  ********************************
  Highest Flow Instability Indexes
  ********************************
  Link 682-683 (8)
  Link 663-707 (3)
  Link 695-663 (3)
  Link 1299-1298 (3)
  Link 693-694 (2)
  
  
  *********************************
  Most Frequent Nonconverging Nodes
  *********************************
  Convergence obtained at all time steps.
  
  
  *************************
  Routing Time Step Summary
  *************************
  Minimum Time Step           :     0.50 sec
  Average Time Step           :     2.17 sec
  Maximum Time Step           :     5.00 sec
  % of Time in Steady State   :     0.00
  Average Iterations per Step :     2.09
  % of Steps Not Converging   :     0.48
  Time Step Frequencies       :
      5.000 -  3.155 sec      :    25.84 %
      3.155 -  1.991 sec      :    10.78 %
      1.991 -  1.256 sec      :     9.28 %
      1.256 -  0.792 sec      :    53.31 %
      0.792 -  0.500 sec      :     0.78 %
  
  
  ***************************
  Subcatchment Runoff Summary
  ***************************
  
  ------------------------------------------------------------------------------------------------------------------------------
                            Total      Total      Total      Total     Imperv       Perv      Total       Total     Peak  Runoff
                           Precip      Runon       Evap      Infil     Runoff     Runoff     Runoff      Runoff   Runoff   Coeff
  Subcatchment                 mm         mm         mm         mm         mm         mm         mm    10^6 ltr      LPS
  ------------------------------------------------------------------------------------------------------------------------------
  755-sub                    5.25       0.00       0.00       0.00       1.10       4.15       5.25        0.01    21.41   1.000
  1584-sub                   5.25       0.00       0.00       0.00       0.68       4.57       5.25        0.03    48.18   1.000
  1582-sub                   5.25       0.00       0.00       0.00       0.80       4.45       5.25        0.01    10.71   1.000
  494-sub                    5.25       0.00       0.00       0.00       3.53       1.72       5.25        0.01    10.71   1.000
  799-sub                    5.25       0.00       0.00       0.00       4.34       0.91       5.25        0.00     5.35   1.000
  1587-sub                   5.25       0.00       0.00       0.00       1.45       3.80       5.25        0.00     5.35   1.000
  493-sub                    5.25       0.00       0.00       0.00       5.16       0.09       5.25        0.00     5.35   1.000
  509-sub                    5.25       0.00       0.00       0.00       3.57       1.68       5.25        0.00     5.35   1.000
  1284-sub                   5.25       0.00       0.00       0.00       2.84       2.41       5.25        0.00     5.35   1.000
  1278-sub                   5.25       0.00       0.00       0.00       4.40       0.85       5.25        0.00     5.35   1.000
  1276-sub                   5.25       0.00       0.00       0.00       2.40       2.85       5.25        0.00     5.35   1.000
  1589-sub                   5.25       0.00       0.00       0.00       0.79       4.46       5.25        0.01    10.71   1.000
  486-sub                    5.25       0.00       0.00       0.00       1.79       3.46       5.25        0.01    10.71   1.000
  488-sub                    5.25       0.00       0.00       0.00       2.86       2.39       5.25        0.01    10.71   1.000
  1372-sub                   5.25       0.00       0.00       0.00       4.75       0.50       5.25        0.01    10.71   1.000
  819-sub                    5.25       0.00       0.00       0.00       4.35       0.90       5.25        0.01    16.06   1.000
  1273-sub                   5.25       0.00       0.00       0.00       3.18       2.07       5.25        0.01    10.71   1.000
  1262-sub                   5.25       0.00       0.00       0.00       3.53       1.72       5.25        0.01    16.06   1.000
  757-sub                    5.25       0.00       0.00       0.00       4.63       0.62       5.25        0.00     5.35   1.000
  512-sub                    5.25       0.00       0.00       0.00       2.89       2.36       5.25        0.00     5.35   1.000
  1590-sub                   5.25       0.00       0.00       0.00       0.69       4.56       5.25        0.04    64.24   1.000
  485-sub                    5.25       0.00       0.00       0.00       2.87       2.38       5.25        0.02    26.77   1.000
  1375-sub                   5.25       0.00       0.00       0.00       3.59       1.66       5.25        0.02    26.77   1.000
  764-sub                    5.25       0.00       0.00       0.00       1.66       3.59       5.25        0.01    10.71   1.000
  514-sub                    5.25       0.00       0.00       0.00       4.44       0.81       5.25        0.01    10.71   1.000
  817-sub                    5.25       0.00       0.00       0.00       3.48       1.77       5.25        0.01    16.06   1.000
  484-sub                    5.25       0.00       0.00       0.00       2.06       3.19       5.25        0.00     5.35   1.000
  513-sub                    5.25       0.00       0.00       0.00       3.13       2.12       5.25        0.00     5.35   1.000
  1373-sub                   5.25       0.00       0.00       0.00       3.33       1.92       5.25        0.00     5.35   1.000
  818-sub                    5.25       0.00       0.00       0.00       1.53       3.72       5.25        0.00     5.35   1.000
  368-sub                    5.25       0.00       0.00       0.00       2.25       3.00       5.25        0.06   101.71   1.000
  768-sub                    5.25       0.00       0.00       0.00       0.95       4.30       5.25        0.01    21.41   1.000
  766-sub                    5.25       0.00       0.00       0.00       2.58       2.67       5.25        0.01    10.71   1.000
  516-sub                    5.25       0.00       0.00       0.00       4.63       0.62       5.25        0.01    16.06   1.000
  1675-sub                   5.25       0.00       0.00       0.00       1.57       3.68       5.25        0.01    10.71   1.000
  478-sub                    5.25       0.00       0.00       0.00       2.73       2.52       5.25        0.00     5.35   1.000
  1674-sub                   5.25       0.00       0.00       0.00       1.81       3.44       5.25        0.01    16.06   1.000
  830-sub                    5.25       0.00       0.00       0.00       3.87       1.38       5.25        0.01    10.71   1.000
  477-sub                    5.25       0.00       0.00       0.00       0.35       4.90       5.25        0.14   230.18   1.000
  774-sub                    5.25       0.00       0.00       0.00       0.76       4.49       5.25        0.02    32.12   1.000
  772-sub                    5.25       0.00       0.00       0.00       0.60       4.65       5.25        0.02    26.77   1.000
  771-sub                    5.25       0.00       0.00       0.00       1.14       4.11       5.25        0.01    21.41   1.000
  769-sub                    5.25       0.00       0.00       0.00       1.09       4.16       5.25        0.01    16.06   1.000
  517-sub                    5.25       0.00       0.00       0.00       3.35       1.90       5.25        0.02    32.12   1.000
  1678-sub                   5.25       0.00       0.00       0.00       1.87       3.38       5.25        0.00     5.35   1.000
  778-sub                    5.25       0.00       0.00       0.00       0.40       4.85       5.25        0.04    74.94   1.000
  777-sub                    5.25       0.00       0.00       0.00       1.46       3.79       5.25        0.02    26.77   1.000
  775-sub                    5.25       0.00       0.00       0.00       1.45       3.80       5.25        0.01    16.06   1.000
  988-sub                    5.25       0.00       0.00       0.00       2.92       2.33       5.25        0.02    37.47   1.000
  1378-sub                   5.25       0.00       0.00       0.00       3.92       1.33       5.25        0.01    16.06   1.000
  518-sub                    5.25       0.00       0.00       0.00       2.77       2.48       5.25        0.00     5.35   1.000
  1377-sub                   5.25       0.00       0.00       0.00       3.00       2.25       5.25        0.00     5.35   1.000
  363-sub                    5.25       0.00       0.00       0.00       1.87       3.38       5.25        0.01    16.06   1.000
  362-sub                    5.25       0.00       0.00       0.00       2.73       2.52       5.25        0.03    58.88   1.000
  374-sub                    5.25       0.00       0.00       0.00       2.97       2.28       5.25        0.01    16.06   1.000
  666-sub                    5.25       0.00       0.00       0.00       0.15       5.10       5.25        0.01    16.06   1.000
  678-sub                    5.25       0.00       0.00       0.00       2.52       2.73       5.25        0.01    10.71   1.000
  674-sub                    5.25       0.00       0.00       0.00       1.71       3.54       5.25        0.01    16.06   1.000
  1687-sub                   5.25       0.00       0.00       0.00       4.48       0.77       5.25        0.01    16.06   1.000
  780-sub                    5.25       0.00       0.00       0.00       2.12       3.13       5.25        0.00     5.35   1.000
  779-sub                    5.25       0.00       0.00       0.00       1.95       3.30       5.25        0.00     5.35   1.000
  987-sub                    5.25       0.00       0.00       0.00       2.50       2.75       5.25        0.00     5.35   1.000
  1379-sub                   5.25       0.00       0.00       0.00       2.58       2.67       5.25        0.00     5.35   1.000
  361-sub                    5.25       0.00       0.00       0.00       3.60       1.65       5.25        0.03    58.88   1.000
  616-sub                    5.25       0.00       0.00       0.00       2.00       3.25       5.25        0.03    53.53   1.000
  679-sub                    5.25       0.00       0.00       0.00       1.70       3.55       5.25        0.02    26.77   1.000
  532-sub                    5.25       0.00       0.00       0.00       3.58       1.67       5.25        0.02    26.77   1.000
  636-sub                    5.25       0.00       0.00       0.00       1.98       3.27       5.25        0.01    16.06   1.000
  1391-sub                   5.25       0.00       0.00       0.00       3.61       1.64       5.25        0.01    10.71   1.000
  792-sub                    5.25       0.00       0.00       0.00       2.18       3.07       5.25        0.01    21.41   1.000
  667-sub                    5.25       0.00       0.00       0.00       1.42       3.83       5.25        0.00     5.35   1.000
  680-sub                    5.25       0.00       0.00       0.00       2.72       2.53       5.25        0.00     5.35   1.000
  794-sub                    5.25       0.00       0.00       0.00       3.95       1.30       5.25        0.01    10.71   1.000
  984-sub                    5.25       0.00       0.00       0.00       2.41       2.84       5.25        0.05    80.30   1.000
  355-sub                    5.25       0.00       0.00       0.00       1.35       3.90       5.25        0.08   139.18   1.000
  635-sub                    5.25       0.00       0.00       0.00       1.44       3.81       5.25        0.02    26.77   1.000
  791-sub                    5.25       0.00       0.00       0.00       2.54       2.71       5.25        0.02    32.12   1.000
  681-sub                    5.25       0.00       0.00       0.00       1.57       3.68       5.25        0.02    26.77   1.000
  673-sub                    5.25       0.00       0.00       0.00       1.22       4.03       5.25        0.01    16.06   1.000
  671-sub                    5.25       0.00       0.00       0.00       2.15       3.10       5.25        0.01    16.06   1.000
  670-sub                    5.25       0.00       0.00       0.00       0.41       4.84       5.25        0.01    21.41   1.000
  669-sub                    5.25       0.00       0.00       0.00       0.77       4.48       5.25        0.01    10.71   1.000
  790-sub                    5.25       0.00       0.00       0.00       2.06       3.19       5.25        0.01    16.06   1.000
  359-sub                    5.25       0.00       0.00       0.00       4.23       1.02       5.25        0.01    10.71   1.000
  1357-sub                   5.25       0.00       0.00       0.00       1.79       3.46       5.25        0.01    10.71   1.000
  788-sub                    5.25       0.00       0.00       0.00       3.69       1.56       5.25        0.00     5.35   1.000
  795-sub                    5.25       0.00       0.00       0.00       3.01       2.24       5.25        0.01    10.71   1.000
  683-sub                    5.25       0.00       0.00       0.00       0.77       4.48       5.25        0.03    53.53   1.000
  1229-sub                   5.25       0.00       0.00       0.00       1.01       4.24       5.25        0.11   182.00   1.000
  661-sub                    5.25       0.00       0.00       0.00       2.52       2.73       5.25        0.02    32.12   1.000
  664-sub                    5.25       0.00       0.00       0.00       2.97       2.28       5.25        0.02    26.77   1.000
  1405-sub                   5.25       0.00       0.00       0.00       2.82       2.43       5.25        0.02    26.77   1.000
  531-sub                    5.25       0.00       0.00       0.00       3.41       1.84       5.25        0.01    21.41   1.000
  634-sub                    5.25       0.00       0.00       0.00       1.67       3.58       5.25        0.01    10.71   1.000
  682-sub                    5.25       0.00       0.00       0.00       2.85       2.40       5.25        0.01    10.71   1.000
  1086-sub                   5.25       0.00       0.00       0.00       3.13       2.12       5.25        0.01    10.71   1.000
  662-sub                    5.25       0.00       0.00       0.00       4.36       0.89       5.25        0.00     5.35   1.000
  440-sub                    5.25       0.00       0.00       0.00       3.52       1.73       5.25        0.00     5.35   1.000
  633-sub                    5.25       0.00       0.00       0.00       3.53       1.72       5.25        0.01    10.71   1.000
  694-sub                    5.25       0.00       0.00       0.00       2.23       3.02       5.25        0.01    10.71   1.000
  692-sub                    5.25       0.00       0.00       0.00       2.51       2.74       5.25        0.01    10.71   1.000
  688-sub                    5.25       0.00       0.00       0.00       2.11       3.14       5.25        0.01    16.06   1.000
  660-sub                    5.25       0.00       0.00       0.00       1.11       4.14       5.25        0.01    10.71   1.000
  707-sub                    5.25       0.00       0.00       0.00       3.87       1.38       5.25        0.01    10.71   1.000
  695-sub                    5.25       0.00       0.00       0.00       5.08       0.17       5.25        0.00     5.35   1.000
  684-sub                    5.25       0.00       0.00       0.00       2.24       3.01       5.25        0.00     5.35   1.000
  1406-sub                   5.25       0.00       0.00       0.00       4.89       0.36       5.25        0.00     5.35   1.000
  983-sub                    5.25       0.00       0.00       0.00       4.82       0.43       5.25        0.00     5.35   1.000
  1131-sub                   5.25       0.00       0.00       0.00       4.56       0.69       5.25        0.01    10.71   1.000
  1063-sub                   5.25       0.00       0.00       0.00       2.83       2.42       5.25        0.00     5.35   1.000
  1054-sub                   5.25       0.00       0.00       0.00       3.19       2.06       5.25        0.00     5.35   1.000
  659-sub                    5.25       0.00       0.00       0.00       1.95       3.30       5.25        0.02    37.47   1.000
  699-sub                    5.25       0.00       0.00       0.00       2.74       2.51       5.25        0.01    21.41   1.000
  1193-sub                   5.25       0.00       0.00       0.00       1.16       4.09       5.25        0.02    26.77   1.000
  1408-sub                   5.25       0.00       0.00       0.00       3.45       1.80       5.25        0.01    16.06   1.000
  1407-sub                   5.25       0.00       0.00       0.00       4.65       0.60       5.25        0.01    10.71   1.000
  980-sub                    5.25       0.00       0.00       0.00       3.61       1.64       5.25        0.01    10.71   1.000
  1194-sub                   5.25       0.00       0.00       0.00       1.00       4.25       5.25        0.01    16.06   1.000
  1200-sub                   5.25       0.00       0.00       0.00       1.38       3.87       5.25        0.01    16.06   1.000
  1064-sub                   5.25       0.00       0.00       0.00       5.15       0.10       5.25        0.01    10.71   1.000
  423-sub                    5.25       0.00       0.00       0.00       4.61       0.64       5.25        0.00     5.35   1.000
  972-sub                    5.25       0.00       0.00       0.00       2.85       2.40       5.25        0.03    42.82   1.000
  1192-sub                   5.25       0.00       0.00       0.00       2.40       2.85       5.25        0.02    37.47   1.000
  1411-sub                   5.25       0.00       0.00       0.00       3.20       2.05       5.25        0.01    21.41   1.000
  1197-sub                   5.25       0.00       0.00       0.00       1.50       3.75       5.25        0.01    21.41   1.000
  1198-sub                   5.25       0.00       0.00       0.00       1.08       4.17       5.25        0.01    16.06   1.000
  1199-sub                   5.25       0.00       0.00       0.00       1.12       4.13       5.25        0.01    16.06   1.000
  1130-sub                   5.25       0.00       0.00       0.00       0.00       0.37       0.37        0.00     1.50   0.070
  656-sub                    5.25       0.00       0.00       0.00       1.83       3.42       5.25        0.01    10.71   1.000
  1409-sub                   5.25       0.00       0.00       0.00       4.79       0.46       5.25        0.01    10.71   1.000
  450-sub                    5.25       0.00       0.00       0.00       2.76       2.49       5.25        0.01    10.71   1.000
  275-sub                    5.25       0.00       0.00       0.00       5.01       0.24       5.25        0.01    21.41   1.000
  975-sub                    5.25       0.00       0.00       0.00       2.46       2.79       5.25        0.00     5.35   1.000
  452-sub                    5.25       0.00       0.00       0.00       2.51       2.74       5.25        0.00     5.35   1.000
  453-sub                    5.25       0.00       0.00       0.00       2.12       3.13       5.25        0.00     5.35   1.000
  1191-sub                   5.25       0.00       0.00       0.00       2.09       3.16       5.25        0.01    10.71   1.000
  1055-sub                   5.25       0.00       0.00       0.00       4.83       0.42       5.25        0.01    10.71   1.000
  1348-sub                   5.25       0.00       0.00       0.00       3.71       1.54       5.25        0.04    74.94   1.000
  1414-sub                   5.25       0.00       0.00       0.00       3.44       1.81       5.25        0.01    21.41   1.000
  1347-sub                   5.25       0.00       0.00       0.00       0.00       3.14       3.14        0.01     9.61   0.599
  418-sub                    5.25       0.00       0.00       0.00       2.01       3.24       5.25        0.01    10.71   1.000
  432-sub                    5.25       0.00       0.00       0.00       3.36       1.89       5.25        0.00     5.35   1.000
  1190-sub                   5.25       0.00       0.00       0.00       1.20       4.05       5.25        0.01    16.06   1.000
  274-sub                    5.25       0.00       0.00       0.00       3.53       1.72       5.25        0.00     5.35   1.000
  1001-sub                   5.25       0.00       0.00       0.00       4.36       0.89       5.25        0.00     5.35   1.000
  698-sub                    5.25       0.00       0.00       0.00       2.74       2.51       5.25        0.02    37.47   1.000
  1415-sub                   5.25       0.00       0.00       0.00       3.77       1.48       5.25        0.02    26.77   1.000
  1416-sub                   5.25       0.00       0.00       0.00       2.75       2.50       5.25        0.02    26.77   1.000
  415-sub                    5.25       0.00       0.00       0.00       3.02       2.23       5.25        0.01    10.71   1.000
  1060-sub                   5.25       0.00       0.00       0.00       3.59       1.66       5.25        0.01    21.41   1.000
  416-sub                    5.25       0.00       0.00       0.00       2.80       2.45       5.25        0.01    10.71   1.000
  1213-sub                   5.25       0.00       0.00       0.00       4.28       0.97       5.25        0.00     5.35   1.000
  1186-sub                   5.25       0.00       0.00       0.00       3.00       2.25       5.25        0.00     5.35   1.000
  1188-sub                   5.25       0.00       0.00       0.00       3.78       1.47       5.25        0.00     5.35   1.000
  697-sub                    5.25       0.00       0.00       0.00       1.78       3.47       5.25        0.03    53.53   1.000
  1129-sub                   5.25       0.00       0.00       0.00       4.18       1.07       5.25        0.03    42.82   1.000
  696-sub                    5.25       0.00       0.00       0.00       1.47       3.78       5.25        0.02    26.77   1.000
  1180-sub                   5.25       0.00       0.00       0.00       4.29       0.96       5.25        0.02    32.12   1.000
  1185-sub                   5.25       0.00       0.00       0.00       1.04       4.21       5.25        0.01    16.06   1.000
  457-sub                    5.25       0.00       0.00       0.00       0.00       1.95       1.95        0.00     3.97   0.371
  471-sub                    5.25       0.00       0.00       0.00       3.96       1.29       5.25        0.01    16.06   1.000
  1187-sub                   5.25       0.00       0.00       0.00       1.50       3.75       5.25        0.01    10.71   1.000
  1662-sub                   5.25       0.00       0.00       0.00       3.62       1.63       5.25        0.01    10.71   1.000
  1417-sub                   5.25       0.00       0.00       0.00       1.98       3.27       5.25        0.00     5.35   1.000
  414-sub                    5.25       0.00       0.00       0.00       3.87       1.38       5.25        0.00     5.35   1.000
  404-sub                    5.25       0.00       0.00       0.00       4.58       0.67       5.25        0.01    10.71   1.000
  1179-sub                   5.25       0.00       0.00       0.00       4.38       0.87       5.25        0.00     5.35   1.000
  1332-sub                   5.25       0.00       0.00       0.00       4.99       0.26       5.25        0.00     5.35   1.000
  998-sub                    5.25       0.00       0.00       0.00       3.46       1.79       5.25        0.04    64.24   1.000
  1184-sub                   5.25       0.00       0.00       0.00       1.76       3.49       5.25        0.01    21.41   1.000
  1189-sub                   5.25       0.00       0.00       0.00       2.23       3.02       5.25        0.02    37.47   1.000
  1062-sub                   5.25       0.00       0.00       0.00       4.89       0.36       5.25        0.01    16.06   1.000
  710-sub                    5.25       0.00       0.00       0.00       4.12       1.13       5.25        0.01    10.71   1.000
  1330-sub                   5.25       0.00       0.00       0.00       4.59       0.66       5.25        0.01    10.71   1.000
  591-sub                    5.25       0.00       0.00       0.00       4.25       1.00       5.25        0.00     5.35   1.000
  728-sub                    5.25       0.00       0.00       0.00       5.25       0.00       5.25        0.01    10.71   1.000
  228-sub                    5.25       0.00       0.00       0.00       4.70       0.55       5.25        0.00     5.35   1.000
  1181-sub                   5.25       0.00       0.00       0.00       3.76       1.49       5.25        0.02    32.12   1.000
  1386-sub                   5.25       0.00       0.00       0.00       3.81       1.44       5.25        0.05    80.30   1.000
  1202-sub                   5.25       0.00       0.00       0.00       4.97       0.28       5.25        0.02    26.77   1.000
  323-sub                    5.25       0.00       0.00       0.00       2.15       3.10       5.25        0.02    26.77   1.000
  417-sub                    5.25       0.00       0.00       0.00       5.24       0.01       5.25        0.01    10.71   1.000
  403-sub                    5.25       0.00       0.00       0.00       3.82       1.43       5.25        0.01    16.06   1.000
  293-sub                    5.25       0.00       0.00       0.00       3.59       1.66       5.25        0.01    16.06   1.000
  1234-sub                   5.25       0.00       0.00       0.00       3.37       1.88       5.25        0.02    26.77   1.000
  711-sub                    5.25       0.00       0.00       0.00       5.15       0.10       5.25        0.00     5.35   1.000
  729-sub                    5.25       0.00       0.00       0.00       5.25       0.00       5.25        0.01    10.71   1.000
  610-sub                    5.25       0.00       0.00       0.00       4.17       1.08       5.25        0.00     5.35   1.000
  1070-sub                   5.25       0.00       0.00       0.00       4.71       0.54       5.25        0.00     5.35   1.000
  1306-sub                   5.25       0.00       0.00       0.00       2.94       2.31       5.25        0.01    10.71   1.000
  1256-sub                   5.25       0.00       0.00       0.00       4.45       0.80       5.25        0.00     5.35   1.000
  1182-sub                   5.25       0.00       0.00       0.00       3.43       1.82       5.25        0.04    64.24   1.000
  429-sub                    5.25       0.00       0.00       0.00       4.10       1.15       5.25        0.05    85.65   1.000
  225-sub                    5.25       0.00       0.00       0.00       4.32       0.93       5.25        0.01    21.41   1.000
  406-sub                    5.25       0.00       0.00       0.00       4.74       0.51       5.25        0.01    21.41   1.000
  322-sub                    5.25       0.00       0.00       0.00       3.04       2.21       5.25        0.01    16.06   1.000
  227-sub                    5.25       0.00       0.00       0.00       3.82       1.43       5.25        0.01    10.71   1.000
  1655-sub                   5.25       0.00       0.00       0.00       3.78       1.47       5.25        0.01    16.06   1.000
  550-sub                    5.25       0.00       0.00       0.00       4.09       1.16       5.25        0.01    10.71   1.000
  321-sub                    5.25       0.00       0.00       0.00       3.73       1.52       5.25        0.01    16.06   1.000
  291-sub                    5.25       0.00       0.00       0.00       4.10       1.15       5.25        0.02    26.77   1.000
  732-sub                    5.25       0.00       0.00       0.00       5.14       0.11       5.25        0.00     5.35   1.000
  614-sub                    5.25       0.00       0.00       0.00       5.25       0.00       5.25        0.00     5.35   1.000
  613-sub                    5.25       0.00       0.00       0.00       4.05       1.20       5.25        0.00     5.35   1.000
  220-sub                    5.25       0.00       0.00       0.00       5.24       0.01       5.25        0.00     5.35   1.000
  224-sub                    5.25       0.00       0.00       0.00       5.09       0.16       5.25        0.00     5.35   1.000
  551-sub                    5.25       0.00       0.00       0.00       5.25       0.00       5.25        0.00     5.35   1.000
  320-sub                    5.25       0.00       0.00       0.00       5.13       0.12       5.25        0.00     5.35   1.000
  971-sub                    5.25       0.00       0.00       0.00       2.03       3.22       5.25        0.11   192.71   1.000
  1078-sub                   5.25       0.00       0.00       0.00       3.73       1.52       5.25        0.03    42.82   1.000
  606-sub                    5.25       0.00       0.00       0.00       5.09       0.16       5.25        0.01    16.06   1.000
  262-sub                    5.25       0.00       0.00       0.00       4.73       0.52       5.25        0.01    21.41   1.000
  1654-sub                   5.25       0.00       0.00       0.00       4.82       0.43       5.25        0.01    21.41   1.000
  605-sub                    5.25       0.00       0.00       0.00       4.02       1.23       5.25        0.00     5.35   1.000
  396-sub                    5.25       0.00       0.00       0.00       4.16       1.09       5.25        0.00     5.35   1.000
  222-sub                    5.25       0.00       0.00       0.00       4.44       0.81       5.25        0.01    10.71   1.000
  552-sub                    5.25       0.00       0.00       0.00       5.21       0.04       5.25        0.00     5.35   1.000
  288-sub                    5.25       0.00       0.00       0.00       4.36       0.89       5.25        0.00     5.35   1.000
  296-sub                    5.25       0.00       0.00       0.00       4.23       1.02       5.25        0.00     5.35   1.000
  411-sub                    5.25       0.00       0.00       0.00       0.00       0.93       0.93        0.00     5.71   0.178
  231-sub                    5.25       0.00       0.00       0.00       4.47       0.78       5.25        0.01    10.71   1.000
  330-sub                    5.25       0.00       0.00       0.00       3.49       1.76       5.25        0.01    16.06   1.000
  331-sub                    5.25       0.00       0.00       0.00       4.58       0.67       5.25        0.01    21.41   1.000
  304-sub                    5.25       0.00       0.00       0.00       4.55       0.70       5.25        0.01    10.71   1.000
  398-sub                    5.25       0.00       0.00       0.00       3.44       1.81       5.25        0.01    10.71   1.000
  397-sub                    5.25       0.00       0.00       0.00       3.09       2.16       5.25        0.01    10.71   1.000
  223-sub                    5.25       0.00       0.00       0.00       0.00       0.35       0.35        0.00     0.72   0.068
  263-sub                    5.25       0.00       0.00       0.00       4.10       1.15       5.25        0.01    10.71   1.000
  1653-sub                   5.25       0.00       0.00       0.00       3.61       1.64       5.25        0.00     5.35   1.000
  302-sub                    5.25       0.00       0.00       0.00       5.13       0.12       5.25        0.01    10.71   1.000
  1553-sub                   5.25       0.00       0.00       0.00       5.04       0.21       5.25        0.00     5.35   1.000
  1316-sub                   5.25       0.00       0.00       0.00       1.27       3.98       5.25        0.01    21.41   1.000
  230-sub                    5.25       0.00       0.00       0.00       4.43       0.82       5.25        0.01    10.71   1.000
  265-sub                    5.25       0.00       0.00       0.00       4.53       0.72       5.25        0.01    21.41   1.000
  264-sub                    5.25       0.00       0.00       0.00       4.28       0.97       5.25        0.01    10.71   1.000
  389-sub                    5.25       0.00       0.00       0.00       3.90       1.35       5.25        0.00     5.35   1.000
  229-sub                    5.25       0.00       0.00       0.00       4.83       0.42       5.25        0.00     5.35   1.000
  310-sub                    5.25       0.00       0.00       0.00       3.12       2.13       5.25        0.00     5.35   1.000
  1331-sub                   5.25       0.00       0.00       0.00       2.45       2.80       5.25        0.04    74.94   1.000
  298-sub                    5.25       0.00       0.00       0.00       2.94       2.31       5.25        0.02    37.47   1.000
  1301-sub                   5.25       0.00       0.00       0.00       1.65       3.60       5.25        0.02    37.47   1.000
  539-sub                    5.25       0.00       0.00       0.00       3.71       1.54       5.25        0.02    32.12   1.000
  326-sub                    5.25       0.00       0.00       0.00       2.41       2.84       5.25        0.01    21.41   1.000
  1294-sub                   5.25       0.00       0.00       0.00       3.17       2.08       5.25        0.01    21.41   1.000
  1324-sub                   5.25       0.00       0.00       0.00       0.00       2.23       2.23        0.01     9.08   0.424
  1321-sub                   5.25       0.00       0.00       0.00       1.46       3.79       5.25        0.01    21.41   1.000
  1319-sub                   5.25       0.00       0.00       0.00       0.57       4.68       5.25        0.02    26.77   1.000
  249-sub                    5.25       0.00       0.00       0.00       5.09       0.16       5.25        0.01    21.41   1.000
  1657-sub                   5.25       0.00       0.00       0.00       2.96       2.29       5.25        0.01    21.41   1.000
  1551-sub                   5.25       0.00       0.00       0.00       0.00       0.46       0.46        0.00     1.86   0.087
  1564-sub                   5.25       0.00       0.00       0.00       5.04       0.21       5.25        0.01    10.71   1.000
  1563-sub                   5.25       0.00       0.00       0.00       4.69       0.56       5.25        0.01    16.06   1.000
  1562-sub                   5.25       0.00       0.00       0.00       2.76       2.49       5.25        0.01    10.71   1.000
  1555-sub                   5.25       0.00       0.00       0.00       1.33       3.92       5.25        0.01    10.71   1.000
  383-sub                    5.25       0.00       0.00       0.00       5.15       0.10       5.25        0.00     5.35   1.000
  233-sub                    5.25       0.00       0.00       0.00       1.88       3.37       5.25        0.00     5.35   1.000
  250-sub                    5.25       0.00       0.00       0.00       4.40       0.85       5.25        0.00     5.35   1.000
  316-sub                    5.25       0.00       0.00       0.00       4.96       0.29       5.25        0.00     5.35   1.000
  1053-sub                   5.25       0.00       0.00       0.00       3.33       1.92       5.25        0.11   182.00   1.000
  1317-sub                   5.25       0.00       0.00       0.00       0.00       4.09       4.09        0.01    25.04   0.780
  308-sub                    5.25       0.00       0.00       0.00       0.00       3.49       3.49        0.01    24.89   0.664
  538-sub                    5.25       0.00       0.00       0.00       1.89       3.36       5.25        0.01    21.41   1.000
  325-sub                    5.25       0.00       0.00       0.00       1.57       3.68       5.25        0.02    26.77   1.000
  193-sub                    5.25       0.00       0.00       0.00       4.75       0.50       5.25        0.02    37.47   1.000
  198-sub                    5.25       0.00       0.00       0.00       3.78       1.47       5.25        0.01    21.41   1.000
  328-sub                    5.25       0.00       0.00       0.00       1.03       4.22       5.25        0.01    16.06   1.000
  329-sub                    5.25       0.00       0.00       0.00       1.10       4.15       5.25        0.02    26.77   1.000
  197-sub                    5.25       0.00       0.00       0.00       0.00       0.88       0.88        0.00     1.79   0.167
  309-sub                    5.25       0.00       0.00       0.00       1.50       3.75       5.25        0.01    10.71   1.000
  247-sub                    5.25       0.00       0.00       0.00       5.13       0.12       5.25        0.00     5.35   1.000
  214-sub                    5.25       0.00       0.00       0.00       4.77       0.48       5.25        0.00     5.35   1.000
  318-sub                    5.25       0.00       0.00       0.00       0.00       1.60       1.60        0.00     1.63   0.305
  340-sub                    5.25       0.00       0.00       0.00       0.00       2.83       2.83        0.00     2.89   0.539
  334-sub                    5.25       0.00       0.00       0.00       4.14       1.11       5.25        0.00     5.35   1.000
  384-sub                    5.25       0.00       0.00       0.00       1.25       4.00       5.25        0.01    16.06   1.000
  237-sub                    5.25       0.00       0.00       0.00       0.00       0.37       0.37        0.00     1.91   0.071
  192-sub                    5.25       0.00       0.00       0.00       5.20       0.05       5.25        0.01    21.41   1.000
  213-sub                    5.25       0.00       0.00       0.00       0.00       1.02       1.02        0.00     3.11   0.193
  267-sub                    5.25       0.00       0.00       0.00       4.49       0.76       5.25        0.01    21.41   1.000
  248-sub                    5.25       0.00       0.00       0.00       4.63       0.62       5.25        0.00     5.35   1.000
  194-sub                    5.25       0.00       0.00       0.00       4.35       0.90       5.25        0.01    10.71   1.000
  950-sub                    5.25       0.00       0.00       0.00       3.81       1.44       5.25        0.00     5.35   1.000
  314-sub                    5.25       0.00       0.00       0.00       0.00       1.29       1.29        0.00     2.62   0.245
  307-sub                    5.25       0.00       0.00       0.00       0.00       2.68       2.68        0.00     8.20   0.510
  246-sub                    5.25       0.00       0.00       0.00       4.25       1.00       5.25        0.01    21.41   1.000
  187-sub                    5.25       0.00       0.00       0.00       4.52       0.73       5.25        0.00     5.35   1.000
  208-sub                    5.25       0.00       0.00       0.00       5.15       0.10       5.25        0.00     5.35   1.000
  313-sub                    5.25       0.00       0.00       0.00       0.00       0.29       0.29        0.00     0.90   0.056
  1451-sub                   5.25       0.00       0.00       0.00       2.13       3.12       5.25        0.00     5.35   1.000
  190-sub                    5.25       0.00       0.00       0.00       0.00       0.31       0.31        0.00     1.28   0.060
  256-sub                    5.25       0.00       0.00       0.00       3.70       1.55       5.25        0.02    37.47   1.000
  961-sub                    5.25       0.00       0.00       0.00       3.44       1.81       5.25        0.01    10.71   1.000
  963-sub                    5.25       0.00       0.00       0.00       0.00       1.56       1.56        0.00     4.76   0.296
  209-sub                    5.25       0.00       0.00       0.00       3.29       1.96       5.25        0.00     5.35   1.000
  962-sub                    5.25       0.00       0.00       0.00       1.60       3.65       5.25        0.00     5.35   1.000
  914-sub                    5.25       0.00       0.00       0.00       0.00       0.59       0.59        0.00     0.60   0.111
  1453-sub                   5.25       0.00       0.00       0.00       5.25       0.00       5.25        0.00     5.35   1.000
  1154-sub                   5.25       0.00       0.00       0.00       3.49       1.76       5.25        0.00     5.35   1.000
  319-sub                    5.25       0.00       0.00       0.00       0.00       4.80       4.80        0.13   225.23   0.915
  341-sub                    5.25       0.00       0.00       0.00       0.00       4.84       4.84        0.02    29.60   0.922
  206-sub                    5.25       0.00       0.00       0.00       4.67       0.58       5.25        0.02    26.77   1.000
  1096-sub                   5.25       0.00       0.00       0.00       3.92       1.33       5.25        0.01    16.06   1.000
  1524-sub                   5.25       0.00       0.00       0.00       0.00       4.00       4.00        0.01    12.25   0.763
  245-sub                    5.25       0.00       0.00       0.00       3.96       1.29       5.25        0.00     5.35   1.000
  1166-sub                   5.25       0.00       0.00       0.00       2.51       2.74       5.25        0.00     5.35   1.000
  266-sub                    5.25       0.00       0.00       0.00       3.37       1.88       5.25        0.07   123.12   1.000
  542-sub                    5.25       0.00       0.00       0.00       1.15       4.10       5.25        0.04    69.59   1.000
  182-sub                    5.25       0.00       0.00       0.00       0.00       1.11       1.11        0.00     7.94   0.212
  560-sub                    5.25       0.00       0.00       0.00       4.58       0.67       5.25        0.02    26.77   1.000
  1155-sub                   5.25       0.00       0.00       0.00       1.64       3.61       5.25        0.01    21.41   1.000
  185-sub                    5.25       0.00       0.00       0.00       0.00       0.93       0.93        0.00     4.75   0.177
  1452-sub                   5.25       0.00       0.00       0.00       0.00       3.64       3.64        0.01    11.15   0.694
  253-sub                    5.25       0.00       0.00       0.00       0.00       0.56       0.56        0.00     2.30   0.107
  191-sub                    5.25       0.00       0.00       0.00       0.00       0.43       0.43        0.00     0.87   0.081
  913-sub                    5.25       0.00       0.00       0.00       0.00       2.75       2.75        0.00     5.60   0.523
  255-sub                    5.25       0.00       0.00       0.00       0.00       0.67       0.67        0.00     0.68   0.127
  183-sub                    5.25       0.00       0.00       0.00       4.59       0.66       5.25        0.00     5.35   1.000
  925-sub                    5.25       0.00       0.00       0.00       5.19       0.06       5.25        0.00     5.35   1.000
  877-sub                    5.25       0.00       0.00       0.00       5.20       0.05       5.25        0.01    16.06   1.000
  566-sub                    5.25       0.00       0.00       0.00       0.00       3.67       3.67        0.00     3.74   0.698
  567-sub                    5.25       0.00       0.00       0.00       4.81       0.44       5.25        0.01    10.71   1.000
  243-sub                    5.25       0.00       0.00       0.00       4.80       0.45       5.25        0.01    10.71   1.000
  1339-sub                   5.25       0.00       0.00       0.00       3.51       1.74       5.25        0.01    16.06   1.000
  259-sub                    5.25       0.00       0.00       0.00       4.33       0.92       5.25        0.01    10.71   1.000
  258-sub                    5.25       0.00       0.00       0.00       4.75       0.50       5.25        0.00     5.35   1.000
  876-sub                    5.25       0.00       0.00       0.00       3.08       2.17       5.25        0.00     5.35   1.000
  1299-sub                   5.25       0.00       0.00       0.00       0.55       4.70       5.25        0.18   305.12   1.000
  871-sub                    5.25       0.00       0.00       0.00       5.15       0.10       5.25        0.01    10.71   1.000
  1091-sub                   5.25       0.00       0.00       0.00       5.08       0.17       5.25        0.01    16.06   1.000
  1340-sub                   5.25       0.00       0.00       0.00       0.00       0.57       0.57        0.00     0.58   0.108
  186-sub                    5.25       0.00       0.00       0.00       1.93       3.32       5.25        0.03    58.88   1.000
  559-sub                    5.25       0.00       0.00       0.00       0.00       4.30       4.30        0.06   100.74   0.818
  909-sub                    5.25       0.00       0.00       0.00       1.32       3.93       5.25        0.04    64.24   1.000
  874-sub                    5.25       0.00       0.00       0.00       1.91       3.34       5.25        0.03    53.53   1.000
  1092-sub                   5.25       0.00       0.00       0.00       0.00       2.44       2.44        0.00     7.45   0.464
  872-sub                    5.25       0.00       0.00       0.00       3.97       1.28       5.25        0.02    26.77   1.000
  842-sub                    5.25       0.00       0.00       0.00       1.96       3.29       5.25        0.00     5.35   1.000
  852-sub                    5.25       0.00       0.00       0.00       4.17       1.08       5.25        0.00     5.35   1.000
  851-sub                    5.25       0.00       0.00       0.00       2.69       2.56       5.25        0.01    10.71   1.000
  342-sub                    5.25       0.00       0.00       0.00       0.00       4.76       4.76        0.27   456.12   0.906
  912-sub                    5.25       0.00       0.00       0.00       0.25       5.00       5.25        0.23   396.12   1.000
  
  
  ******************
  Node Depth Summary
  ******************
  
  ---------------------------------------------------------------------------------
                                 Average  Maximum  Maximum  Time of Max    Reported
                                   Depth    Depth      HGL   Occurrence   Max Depth
  Node                 Type       Meters   Meters   Meters  days hr:min      Meters
  ---------------------------------------------------------------------------------
  228_outfall          OUTFALL      0.00     0.00  1012.30     0  00:00        0.00
  382_outfall          OUTFALL      0.00     0.00  1012.23     0  00:00        0.00
  383_outfall          OUTFALL      0.00     0.00  1012.01     0  00:00        0.00
  384_outfall          OUTFALL      0.00     0.00  1010.74     0  00:00        0.00
  389_outfall          OUTFALL      0.00     0.00  1012.22     0  00:00        0.00
  396_outfall          OUTFALL      0.00     0.00  1014.40     0  00:00        0.00
  397_outfall          OUTFALL      0.00     0.00  1012.76     0  00:00        0.00
  398_outfall          OUTFALL      0.00     0.00  1011.70     0  00:00        0.00
  414_outfall          OUTFALL      0.00     0.00  1011.45     0  00:00        0.00
  415_outfall          OUTFALL      0.00     0.00  1011.27     0  00:00        0.00
  416_outfall          OUTFALL      0.00     0.00  1011.95     0  00:00        0.00
  418_outfall          OUTFALL      0.00     0.00  1013.49     0  00:00        0.00
  450_outfall          OUTFALL      0.00     0.00  1013.85     0  00:00        0.00
  451_outfall          OUTFALL      0.00     0.00  1014.43     0  00:00        0.00
  452_outfall          OUTFALL      0.00     0.00  1015.39     0  00:00        0.00
  453_outfall          OUTFALL      0.00     0.00  1014.93     0  00:00        0.00
  457_outfall          OUTFALL      0.00     0.00  1017.43     0  00:00        0.00
  471_outfall          OUTFALL      0.00     0.00  1017.82     0  00:00        0.00
  472_outfall          OUTFALL      0.00     0.00  1047.59     0  00:00        0.00
  531_outfall          OUTFALL      0.00     0.00  1020.02     0  00:00        0.00
  532_outfall          OUTFALL      0.00     0.00  1018.75     0  00:00        0.00
  609_outfall          OUTFALL      0.00     0.00  1015.06     0  00:00        0.00
  610_outfall          OUTFALL      0.00     0.00  1013.56     0  00:00        0.00
  611_outfall          OUTFALL      0.00     0.00  1014.20     0  00:00        0.00
  612_outfall          OUTFALL      0.00     0.00  1014.51     0  00:00        0.00
  613_outfall          OUTFALL      0.00     0.00  1014.40     0  00:00        0.00
  614_outfall          OUTFALL      0.00     0.00  1014.70     0  00:00        0.00
  697_outfall          OUTFALL      0.00     0.00  1020.98     0  00:00        0.00
  773_outfall          OUTFALL      0.00     0.00  1074.60     0  00:00        0.00
  786_outfall          OUTFALL      0.00     0.00  1036.23     0  00:00        0.00
  788_outfall          OUTFALL      0.00     0.00  1034.25     0  00:00        0.00
  789_outfall          OUTFALL      0.00     0.00  1032.52     0  00:00        0.00
  790_outfall          OUTFALL      0.00     0.00  1031.30     0  00:00        0.00
  791_outfall          OUTFALL      0.00     0.00  1030.70     0  00:00        0.00
  792_outfall          OUTFALL      0.00     0.00  1028.49     0  00:00        0.00
  798_outfall          OUTFALL      0.00     0.00  1095.00     0  00:00        0.00
  842_outfall          OUTFALL      0.00     0.00  1003.99     0  00:00        0.00
  877_outfall          OUTFALL      0.00     0.00  1013.02     0  00:00        0.00
  971_outfall          OUTFALL      0.00     0.00  1013.52     0  00:00        0.00
  972_outfall          OUTFALL      0.00     0.00  1013.84     0  00:00        0.00
  975_outfall          OUTFALL      0.00     0.00  1015.11     0  00:00        0.00
  983_outfall          OUTFALL      0.00     0.00  1021.76     0  00:00        0.00
  984_outfall          OUTFALL      0.00     0.00  1020.98     0  00:00        0.00
  987_outfall          OUTFALL      0.00     0.00  1026.23     0  00:00        0.00
  988_outfall          OUTFALL      0.00     0.00  1026.21     0  00:00        0.00
  1054_outfall         OUTFALL      0.00     0.00  1044.24     0  00:00        0.00
  1063_outfall         OUTFALL      0.00     0.00  1041.97     0  00:00        0.00
  1064_outfall         OUTFALL      0.00     0.00  1043.78     0  00:00        0.00
  1086_outfall         OUTFALL      0.00     0.00  1020.92     0  00:00        0.00
  1229_outfall         OUTFALL      0.00     0.00  1026.59     0  00:00        0.00
  1234_outfall         OUTFALL      0.00     0.00  1053.93     0  00:00        0.00
  1278_outfall         OUTFALL      0.00     0.00  1061.80     0  00:00        0.00
  1332_outfall         OUTFALL      0.00     0.00  1053.07     0  00:00        0.00
  1412_outfall         OUTFALL      0.00     0.00  1015.55     0  00:00        0.00
  1413_outfall         OUTFALL      0.00     0.00  1014.20     0  00:00        0.00
  1414_outfall         OUTFALL      0.00     0.00  1013.95     0  00:00        0.00
  1415_outfall         OUTFALL      0.00     0.00  1014.31     0  00:00        0.00
  1416_outfall         OUTFALL      0.00     0.00  1015.38     0  00:00        0.00
  1417_outfall         OUTFALL      0.00     0.00  1016.25     0  00:00        0.00
  1582_outfall         OUTFALL      0.00     0.00  1047.67     0  00:00        0.00
  182                  STORAGE      0.02     0.05  1023.40     0  00:15        0.05
  183                  STORAGE      0.03     0.05  1023.95     0  00:15        0.05
  185                  STORAGE      0.03     0.07  1020.36     0  00:15        0.07
  186                  STORAGE      0.26     0.50  1019.44     0  00:09        0.50
  187                  STORAGE      0.31     0.71  1024.17     0  00:13        0.70
  190                  STORAGE      0.07     0.12  1021.73     0  00:13        0.12
  191                  STORAGE      0.07     0.11  1020.71     0  00:15        0.11
  192                  STORAGE      0.05     0.12  1025.10     0  00:15        0.12
  193                  STORAGE      0.24     0.50  1024.20     0  00:11        0.50
  194                  STORAGE      0.29     0.64  1024.24     0  00:11        0.59
  195                  STORAGE      0.01     0.02  1025.54     0  00:15        0.02
  197                  STORAGE      0.01     0.03  1025.82     0  00:15        0.03
  198                  STORAGE      0.04     0.09  1025.04     0  00:15        0.09
  206                  STORAGE      0.19     0.50  1022.90     0  00:12        0.50
  208                  STORAGE      0.01     0.03  1025.34     0  00:15        0.03
  209                  STORAGE      0.03     0.06  1026.83     0  00:15        0.06
  213                  STORAGE      0.01     0.03  1027.55     0  00:15        0.03
  214                  STORAGE      0.02     0.03  1028.09     0  00:15        0.03
  220                  STORAGE      0.39     1.10  1020.27     0  00:16        0.98
  222                  STORAGE      0.03     0.05  1022.25     0  00:15        0.05
  223                  STORAGE      0.04     0.07  1022.42     0  00:15        0.07
  224                  STORAGE      0.48     1.25  1020.19     0  00:16        1.13
  225                  STORAGE      0.40     1.04  1019.69     0  00:16        1.00
  226                  STORAGE      0.29     0.71  1018.96     0  00:16        0.66
  227                  STORAGE      0.09     0.15  1017.95     0  00:15        0.15
  228                  STORAGE      0.03     0.05  1017.35     0  00:15        0.05
  229                  STORAGE      0.12     0.44  1020.47     0  00:18        0.26
  230                  STORAGE      0.27     0.82  1020.43     0  00:17        0.65
  231                  STORAGE      0.34     0.98  1020.34     0  00:17        0.85
  233                  STORAGE      0.07     0.29  1020.47     0  00:17        0.07
  237                  STORAGE      0.02     0.03  1019.47     0  00:15        0.03
  243                  STORAGE      0.01     0.03  1019.06     0  00:15        0.03
  245                  STORAGE      0.01     0.03  1023.46     0  00:15        0.03
  246                  STORAGE      0.04     0.09  1019.35     0  00:15        0.09
  247                  STORAGE      0.02     0.04  1026.41     0  00:15        0.04
  248                  STORAGE      0.02     0.04  1025.54     0  00:15        0.04
  249                  STORAGE      0.03     0.07  1025.15     0  00:15        0.07
  250                  STORAGE      0.02     0.04  1023.88     0  00:15        0.04
  253                  STORAGE      0.51     0.67  1015.70     0  00:12        0.63
  255                  STORAGE      0.00     0.01  1017.37     0  00:15        0.01
  256                  STORAGE      0.42     0.50  1015.62     0  00:11        0.50
  258                  STORAGE      0.02     0.03  1018.90     0  00:15        0.03
  259                  STORAGE      0.02     0.05  1013.74     0  00:15        0.05
  262                  STORAGE      0.04     0.08  1026.70     0  00:15        0.08
  263                  STORAGE      0.03     0.06  1026.79     0  00:15        0.06
  264                  STORAGE      0.03     0.07  1031.43     0  00:15        0.07
  265                  STORAGE      0.76     1.03  1026.22     0  00:18        0.97
  266                  STORAGE      0.45     0.50  1026.03     0  00:08        0.50
  267                  STORAGE      0.18     0.50  1026.62     0  00:12        0.50
  274                  STORAGE      0.03     0.06  1040.97     0  00:15        0.06
  275                  STORAGE      1.63     3.09  1036.73     0  00:18        2.57
  288                  STORAGE      0.05     0.11  1051.76     0  00:15        0.11
  291                  STORAGE      0.04     0.08  1051.29     0  00:15        0.08
  293                  STORAGE      0.04     0.09  1049.84     0  00:15        0.09
  296                  STORAGE      0.02     0.03  1056.41     0  00:15        0.03
  298                  STORAGE      1.25     1.62  1056.06     0  00:15        1.62
  302                  STORAGE      0.51     0.98  1043.35     0  00:15        0.98
  304                  STORAGE      0.04     0.07  1052.14     0  00:15        0.07
  305                  STORAGE      0.06     0.09  1032.07     0  00:15        0.09
  306                  STORAGE      0.00     0.00  1038.04     0  00:00        0.00
  307                  STORAGE      0.02     0.04  1037.44     0  00:15        0.04
  308                  STORAGE      0.09     0.33  1036.75     0  00:15        0.32
  309                  STORAGE      0.26     0.50  1036.16     0  00:09        0.50
  310                  STORAGE      0.62     1.00  1036.00     0  00:09        1.00
  313                  STORAGE      0.01     0.03  1032.44     0  00:15        0.03
  314                  STORAGE      0.03     0.05  1032.11     0  00:15        0.05
  316                  STORAGE      0.04     0.08  1031.51     0  00:15        0.08
  317                  STORAGE      0.02     0.05  1031.68     0  00:15        0.05
  318                  STORAGE      0.02     0.04  1032.06     0  00:15        0.04
  319                  STORAGE      0.26     0.50  1047.54     0  00:07        0.50
  320                  STORAGE      0.56     1.06  1043.28     0  00:15        1.06
  321                  STORAGE      0.06     0.10  1042.09     0  00:15        0.10
  322                  STORAGE      0.24     0.50  1039.34     0  00:10        0.50
  323                  STORAGE      0.31     0.50  1035.68     0  00:08        0.50
  324                  STORAGE      0.89     1.00  1035.00     0  00:09        1.00
  325                  STORAGE      0.86     1.88  1037.76     0  00:15        1.86
  326                  STORAGE      0.19     0.50  1039.15     0  00:11        0.50
  327                  STORAGE      0.20     0.50  1039.57     0  00:11        0.50
  328                  STORAGE      0.21     0.50  1039.94     0  00:10        0.50
  329                  STORAGE      0.11     0.42  1040.72     0  00:15        0.42
  330                  STORAGE      0.03     0.05  1041.41     0  00:15        0.05
  331                  STORAGE      0.28     0.50  1043.00     0  00:08        0.50
  334                  STORAGE      0.01     0.03  1057.06     0  00:15        0.03
  340                  STORAGE      0.02     0.04  1057.14     0  00:15        0.04
  341                  STORAGE      0.03     0.05  1054.76     0  00:15        0.05
  342                  STORAGE      0.28     0.50  1046.89     0  00:06        0.50
  355                  STORAGE      0.14     0.38  1057.20     0  00:15        0.38
  359                  STORAGE      0.22     0.50  1055.99     0  00:09        0.50
  361                  STORAGE      0.26     0.50  1050.68     0  00:07        0.50
  362                  STORAGE      0.19     0.50  1047.67     0  00:10        0.50
  363                  STORAGE      0.09     0.18  1044.68     0  00:15        0.18
  368                  STORAGE      0.06     0.13  1056.69     0  00:15        0.13
  374                  STORAGE      0.03     0.09  1057.11     0  00:15        0.09
  382                  STORAGE      0.00     0.00  1017.23     0  00:00        0.00
  383                  STORAGE      0.00     0.01  1017.02     0  00:15        0.01
  384                  STORAGE      0.01     0.02  1015.76     0  00:15        0.02
  389                  STORAGE      0.00     0.01  1017.23     0  00:15        0.01
  396                  STORAGE      0.01     0.03  1019.43     0  00:15        0.03
  397                  STORAGE      0.01     0.02  1017.78     0  00:15        0.02
  398                  STORAGE      0.01     0.02  1016.72     0  00:15        0.02
  401                  STORAGE      0.01     0.03  1019.44     0  00:15        0.03
  403                  STORAGE      0.11     0.35  1018.17     0  00:15        0.34
  404                  STORAGE      0.09     0.17  1017.56     0  00:15        0.17
  406                  STORAGE      0.03     0.06  1017.63     0  00:15        0.06
  411                  STORAGE      0.01     0.03  1023.49     0  00:15        0.03
  414                  STORAGE      0.01     0.03  1016.48     0  00:15        0.03
  415                  STORAGE      0.01     0.02  1016.29     0  00:15        0.02
  416                  STORAGE      0.03     0.06  1017.01     0  00:15        0.06
  417                  STORAGE      0.02     0.05  1018.85     0  00:15        0.05
  418                  STORAGE      0.01     0.02  1018.50     0  00:15        0.02
  422                  STORAGE      0.21     0.42  1020.38     0  00:14        0.42
  423                  STORAGE      0.08     0.23  1020.46     0  00:15        0.23
  429                  STORAGE      0.20     0.50  1021.86     0  00:10        0.50
  431                  STORAGE      0.16     0.33  1020.90     0  00:10        0.32
  432                  STORAGE      0.06     0.11  1020.57     0  00:15        0.11
  439                  STORAGE      0.05     0.11  1027.11     0  00:14        0.11
  440                  STORAGE      0.25     0.65  1027.86     0  00:14        0.62
  450                  STORAGE      0.01     0.02  1018.87     0  00:15        0.02
  451                  STORAGE      0.00     0.00  1019.43     0  00:00        0.00
  452                  STORAGE      0.00     0.01  1020.40     0  00:15        0.01
  453                  STORAGE      0.05     0.10  1020.03     0  00:14        0.10
  457                  STORAGE      0.01     0.03  1022.46     0  00:15        0.03
  471                  STORAGE      0.01     0.02  1022.84     0  00:15        0.02
  472                  STORAGE      0.01     0.02  1052.61     0  00:15        0.02
  477                  STORAGE      0.48     1.00  1046.39     0  00:08        1.00
  478                  STORAGE      0.25     0.50  1046.17     0  00:07        0.50
  484                  STORAGE      0.05     0.12  1047.40     0  00:15        0.12
  485                  STORAGE      0.09     0.18  1047.50     0  00:15        0.18
  486                  STORAGE      0.06     0.12  1047.60     0  00:15        0.12
  488                  STORAGE      0.02     0.04  1051.09     0  00:15        0.04
  493                  STORAGE      0.01     0.02  1054.20     0  00:15        0.02
  494                  STORAGE      0.02     0.04  1054.29     0  00:15        0.04
  508                  STORAGE      0.00     0.00  1049.61     0  00:00        0.00
  509                  STORAGE      0.01     0.03  1047.60     0  00:15        0.03
  510                  STORAGE      0.01     0.03  1046.21     0  00:15        0.03
  512                  STORAGE      0.02     0.04  1045.28     0  00:15        0.04
  513                  STORAGE      0.02     0.05  1043.99     0  00:15        0.05
  514                  STORAGE      0.03     0.06  1041.81     0  00:15        0.06
  515                  STORAGE      0.04     0.08  1038.41     0  00:15        0.08
  516                  STORAGE      0.05     0.10  1036.75     0  00:15        0.10
  517                  STORAGE      0.12     0.28  1035.12     0  00:15        0.26
  518                  STORAGE      0.08     0.30  1035.07     0  00:15        0.25
  531                  STORAGE      0.01     0.02  1025.05     0  00:15        0.02
  532                  STORAGE      0.02     0.06  1023.81     0  00:18        0.03
  538                  STORAGE      0.32     0.50  1036.00     0  00:08        0.50
  539                  STORAGE      0.41     0.83  1036.45     0  00:15        0.83
  542                  STORAGE      0.29     0.50  1039.14     0  00:07        0.50
  550                  STORAGE      0.24     0.50  1037.12     0  00:11        0.50
  551                  STORAGE      0.42     0.97  1037.41     0  00:16        0.96
  552                  STORAGE      0.71     1.65  1037.74     0  00:15        1.61
  559                  STORAGE      0.41     0.88  1019.51     0  00:10        0.82
  560                  STORAGE      0.05     0.09  1021.50     0  00:15        0.09
  566                  STORAGE      0.36     0.50  1014.97     0  00:16        0.50
  567                  STORAGE      0.41     0.57  1014.98     0  00:17        0.56
  591                  STORAGE      0.01     0.03  1034.91     0  00:15        0.03
  592                  STORAGE      0.01     0.03  1032.91     0  00:15        0.03
  593                  STORAGE      0.03     0.05  1030.74     0  00:15        0.05
  605                  STORAGE      0.02     0.04  1021.92     0  00:15        0.04
  606                  STORAGE      0.03     0.07  1020.36     0  00:15        0.07
  609                  STORAGE      0.00     0.00  1020.06     0  00:00        0.00
  610                  STORAGE      0.00     0.01  1018.57     0  00:15        0.01
  611                  STORAGE      0.00     0.00  1019.20     0  00:00        0.00
  612                  STORAGE      0.00     0.00  1019.51     0  00:00        0.00
  613                  STORAGE      0.00     0.01  1019.41     0  00:15        0.01
  614                  STORAGE      0.00     0.01  1019.71     0  00:15        0.01
  615                  STORAGE      0.07     0.34  1051.52     0  00:15        0.17
  616                  STORAGE      0.03     0.05  1057.89     0  00:15        0.05
  633                  STORAGE      0.04     0.09  1067.03     0  00:15        0.09
  634                  STORAGE      0.04     0.07  1066.71     0  00:15        0.07
  635                  STORAGE      0.13     0.49  1065.09     0  00:15        0.45
  636                  STORAGE      0.05     0.10  1063.44     0  00:15        0.10
  656                  STORAGE      0.03     0.07  1061.06     0  00:15        0.07
  659                  STORAGE      0.05     0.10  1060.56     0  00:15        0.10
  660                  STORAGE      0.05     0.11  1056.39     0  00:15        0.11
  661                  STORAGE      0.45     0.50  1051.94     0  00:08        0.50
  662                  STORAGE      1.24     2.00  1053.06     0  00:13        2.00
  663                  STORAGE      0.33     0.90  1041.28     0  00:14        0.90
  664                  STORAGE      0.06     0.13  1047.42     0  00:14        0.11
  666                  STORAGE      0.05     0.09  1065.52     0  00:15        0.09
  667                  STORAGE      0.05     0.11  1065.29     0  00:15        0.11
  668                  STORAGE      0.04     0.09  1065.09     0  00:15        0.09
  669                  STORAGE      0.04     0.08  1064.79     0  00:15        0.08
  670                  STORAGE      0.04     0.09  1063.74     0  00:15        0.09
  671                  STORAGE      0.05     0.12  1058.96     0  00:15        0.12
  672                  STORAGE      0.05     0.11  1056.40     0  00:15        0.11
  673                  STORAGE      0.05     0.12  1054.56     0  00:15        0.12
  674                  STORAGE      0.29     0.50  1040.75     0  00:06        0.50
  678                  STORAGE      0.30     0.50  1040.15     0  00:06        0.50
  679                  STORAGE      0.28     0.69  1039.91     0  00:15        0.69
  680                  STORAGE      0.32     0.76  1039.69     0  00:15        0.75
  681                  STORAGE      0.41     0.82  1039.42     0  00:15        0.82
  682                  STORAGE      0.45     0.50  1038.73     0  00:09        0.50
  683                  STORAGE      0.47     0.61  1038.81     0  00:09        0.53
  684                  STORAGE      0.02     0.04  1040.75     0  00:15        0.04
  688                  STORAGE      0.01     0.01  1044.32     0  00:15        0.01
  692                  STORAGE      0.03     0.05  1041.40     0  00:15        0.05
  693                  STORAGE      0.40     0.50  1040.57     0  00:08        0.50
  694                  STORAGE      0.72     1.00  1040.81     0  00:11        1.00
  695                  STORAGE      1.25     1.90  1041.25     0  00:15        1.89
  696                  STORAGE      0.05     0.12  1027.51     0  00:15        0.12
  697                  STORAGE      0.04     0.08  1026.06     0  00:15        0.08
  698                  STORAGE      0.24     0.50  1032.77     0  00:09        0.50
  699                  STORAGE      0.38     1.11  1041.12     0  00:15        1.11
  707                  STORAGE      0.28     0.87  1041.27     0  00:15        0.87
  710                  STORAGE      0.04     0.08  1031.03     0  00:15        0.08
  711                  STORAGE      0.02     0.04  1031.60     0  00:15        0.04
  728                  STORAGE      0.05     0.10  1022.83     0  00:15        0.10
  729                  STORAGE      0.05     0.11  1023.05     0  00:15        0.11
  730                  STORAGE      0.02     0.03  1026.72     0  00:15        0.03
  732                  STORAGE      0.02     0.04  1027.17     0  00:15        0.04
  755                  STORAGE      0.04     0.08  1107.57     0  00:15        0.08
  757                  STORAGE      0.02     0.04  1106.68     0  00:15        0.04
  761                  STORAGE      0.02     0.05  1098.02     0  00:15        0.05
  764                  STORAGE      0.04     0.07  1094.34     0  00:15        0.07
  765                  STORAGE      0.14     0.36  1092.58     0  00:16        0.35
  766                  STORAGE      0.14     0.37  1092.58     0  00:16        0.35
  767                  STORAGE      0.06     0.12  1092.11     0  00:16        0.11
  768                  STORAGE      0.05     0.10  1091.57     0  00:15        0.10
  769                  STORAGE      0.05     0.11  1087.57     0  00:15        0.11
  770                  STORAGE      0.06     0.12  1084.43     0  00:15        0.12
  771                  STORAGE      0.22     0.50  1082.15     0  00:09        0.50
  772                  STORAGE      0.28     0.50  1080.43     0  00:08        0.50
  773                  STORAGE      0.03     0.05  1079.65     0  00:14        0.05
  774                  STORAGE      0.28     0.50  1080.45     0  00:07        0.50
  775                  STORAGE      0.06     0.10  1082.23     0  00:15        0.10
  776                  STORAGE      0.17     0.34  1082.84     0  00:18        0.34
  777                  STORAGE      0.25     0.50  1083.38     0  00:08        0.50
  778                  STORAGE      0.11     0.50  1087.09     0  00:14        0.50
  779                  STORAGE      0.02     0.04  1091.71     0  00:15        0.04
  780                  STORAGE      0.02     0.05  1092.21     0  00:15        0.05
  786                  STORAGE      0.04     0.07  1041.30     0  00:15        0.07
  788                  STORAGE      0.00     0.01  1039.26     0  00:15        0.01
  789                  STORAGE      0.00     0.00  1037.52     0  00:00        0.00
  790                  STORAGE      0.01     0.02  1036.33     0  00:15        0.02
  791                  STORAGE      0.01     0.03  1035.73     0  00:15        0.03
  792                  STORAGE      0.03     0.06  1033.55     0  00:15        0.06
  794                  STORAGE      0.19     0.49  1043.77     0  00:15        0.49
  795                  STORAGE      0.10     0.18  1042.62     0  00:15        0.18
  796                  STORAGE      0.53     1.26  1052.61     0  00:16        1.21
  798                  STORAGE      0.00     0.01  1100.01     0  00:15        0.01
  799                  STORAGE      0.02     0.04  1100.54     0  00:15        0.04
  817                  STORAGE      0.01     0.03  1058.06     0  00:15        0.03
  818                  STORAGE      0.02     0.04  1054.62     0  00:15        0.04
  819                  STORAGE      0.03     0.06  1053.02     0  00:15        0.06
  830                  STORAGE      0.47     0.50  1055.86     0  00:06        0.50
  842                  STORAGE      0.02     0.05  1009.03     0  00:15        0.05
  851                  STORAGE      0.02     0.04  1014.08     0  00:15        0.04
  852                  STORAGE      0.02     0.05  1010.86     0  00:15        0.05
  871                  STORAGE      0.17     0.50  1021.49     0  00:13        0.50
  872                  STORAGE      0.07     0.23  1024.21     0  00:15        0.23
  873                  STORAGE      0.03     0.05  1023.59     0  00:15        0.05
  874                  STORAGE      0.87     2.36  1022.02     0  00:16        2.23
  876                  STORAGE      0.13     0.28  1018.63     0  00:16        0.25
  877                  STORAGE      0.06     0.10  1018.12     0  00:15        0.10
  909                  STORAGE      0.29     0.50  1022.30     0  00:07        0.50
  912                  STORAGE      0.28     0.50  1028.44     0  00:06        0.50
  913                  STORAGE      0.01     0.03  1034.85     0  00:15        0.03
  914                  STORAGE      0.01     0.03  1040.96     0  00:15        0.03
  925                  STORAGE      0.03     0.06  1022.69     0  00:15        0.06
  950                  STORAGE      0.01     0.03  1027.79     0  00:15        0.03
  957                  STORAGE      0.04     0.09  1027.07     0  00:15        0.09
  961                  STORAGE      0.05     0.10  1027.21     0  00:15        0.10
  962                  STORAGE      0.02     0.05  1027.42     0  00:15        0.05
  963                  STORAGE      0.36     0.50  1027.70     0  00:17        0.50
  971                  STORAGE      0.04     0.08  1018.60     0  00:15        0.08
  972                  STORAGE      0.02     0.04  1018.87     0  00:15        0.04
  975                  STORAGE      0.00     0.01  1020.12     0  00:15        0.01
  980                  STORAGE      0.02     0.03  1024.28     0  00:15        0.03
  983                  STORAGE      0.00     0.01  1026.77     0  00:15        0.01
  984                  STORAGE      0.02     0.05  1026.03     0  00:15        0.05
  987                  STORAGE      0.00     0.01  1031.24     0  00:15        0.01
  988                  STORAGE      0.02     0.03  1031.24     0  00:15        0.03
  997                  STORAGE      0.17     0.50  1033.05     0  00:13        0.50
  998                  STORAGE      0.46     0.50  1034.44     0  00:07        0.50
  1001                 STORAGE      0.02     0.03  1043.53     0  00:15        0.03
  1053                 STORAGE      0.26     0.50  1020.66     0  00:07        0.50
  1054                 STORAGE      0.02     0.04  1049.28     0  00:15        0.04
  1055                 STORAGE      0.06     0.13  1049.40     0  00:15        0.13
  1060                 STORAGE      0.04     0.08  1049.50     0  00:15        0.08
  1062                 STORAGE      0.01     0.03  1049.56     0  00:15        0.03
  1063                 STORAGE      0.00     0.01  1046.98     0  00:15        0.01
  1064                 STORAGE      0.01     0.02  1048.80     0  00:15        0.02
  1070                 STORAGE      0.03     0.07  1026.25     0  00:15        0.07
  1078                 STORAGE      0.05     0.10  1025.33     0  00:15        0.10
  1086                 STORAGE      0.01     0.02  1025.94     0  00:15        0.02
  1091                 STORAGE      0.04     0.09  1010.58     0  00:15        0.09
  1092                 STORAGE      0.05     0.10  1009.83     0  00:15        0.10
  1096                 STORAGE      0.02     0.05  1024.80     0  00:15        0.05
  1129                 STORAGE      1.31     2.27  1042.74     0  00:15        2.26
  1130                 STORAGE      0.49     0.61  1041.53     0  00:08        0.58
  1131                 STORAGE      0.44     0.50  1041.47     0  00:08        0.50
  1154                 STORAGE      0.01     0.02  1049.90     0  00:15        0.02
  1155                 STORAGE      0.05     0.11  1047.42     0  00:15        0.11
  1166                 STORAGE      0.01     0.03  1029.45     0  00:15        0.03
  1179                 STORAGE      0.52     1.07  1025.95     0  00:15        1.07
  1180                 STORAGE      0.04     0.08  1025.97     0  00:15        0.08
  1181                 STORAGE      0.14     0.33  1026.59     0  00:15        0.33
  1182                 STORAGE      0.25     0.50  1028.01     0  00:08        0.50
  1183                 STORAGE      0.10     0.42  1029.82     0  00:15        0.40
  1184                 STORAGE      0.06     0.22  1030.46     0  00:15        0.19
  1185                 STORAGE      0.04     0.08  1031.90     0  00:15        0.08
  1186                 STORAGE      0.03     0.06  1033.63     0  00:15        0.06
[...]
  415-415_outfall         1.00   0.67  0.00  0.00  0.00  0.00  0.00  0.33  0.00  0.00
  416-416_outfall         1.00   0.32  0.00  0.00  0.00  0.00  0.00  0.68  0.00  0.00
  418-418_outfall         1.00   0.67  0.00  0.00  0.00  0.00  0.00  0.33  0.00  0.00
  450-450_outfall         1.00   0.67  0.00  0.00  0.00  0.00  0.00  0.33  0.00  0.00
  451-451_outfall         1.00   1.00  0.00  0.00  0.00  0.00  0.00  0.00  0.00  0.00
  452-452_outfall         1.00   0.67  0.00  0.00  0.00  0.00  0.00  0.33  0.00  0.00
  453-453_outfall         1.00   0.08  0.00  0.00  0.00  0.00  0.00  0.92  0.00  0.00
  457-457_outfall         1.00   0.35  0.00  0.00  0.00  0.00  0.00  0.65  0.00  0.00
  471-471_outfall         1.00   0.67  0.00  0.00  0.00  0.00  0.00  0.33  0.00  0.00
  472-472_outfall         1.00   0.62  0.00  0.00  0.00  0.00  0.00  0.38  0.00  0.00
  531-531_outfall         1.00   0.67  0.00  0.00  0.00  0.00  0.00  0.33  0.00  0.00
  532-532_outfall         1.00   0.59  0.00  0.00  0.00  0.00  0.00  0.41  0.00  0.00
  609-609_outfall         1.00   1.00  0.00  0.00  0.00  0.00  0.00  0.00  0.00  0.00
  610-610_outfall         1.00   0.67  0.00  0.00  0.00  0.00  0.00  0.33  0.00  0.00
  611-611_outfall         1.00   1.00  0.00  0.00  0.00  0.00  0.00  0.00  0.00  0.00
  612-612_outfall         1.00   1.00  0.00  0.00  0.00  0.00  0.00  0.00  0.00  0.00
  613-613_outfall         1.00   0.67  0.00  0.00  0.00  0.00  0.00  0.33  0.00  0.00
  614-614_outfall         1.00   0.67  0.00  0.00  0.00  0.00  0.00  0.33  0.00  0.00
  697-697_outfall         1.00   0.08  0.00  0.00  0.00  0.00  0.00  0.92  0.00  0.00
  773-773_outfall         1.00   0.17  0.00  0.00  0.00  0.00  0.00  0.83  0.00  0.00
  786-786_outfall         1.00   0.35  0.00  0.00  0.00  0.00  0.00  0.65  0.00  0.00
  788-788_outfall         1.00   0.67  0.00  0.00  0.00  0.00  0.00  0.33  0.00  0.00
  789-789_outfall         1.00   1.00  0.00  0.00  0.00  0.00  0.00  0.00  0.00  0.00
  790-790_outfall         1.00   0.67  0.00  0.00  0.00  0.00  0.00  0.33  0.00  0.00
  791-791_outfall         1.00   0.67  0.00  0.00  0.00  0.00  0.00  0.33  0.00  0.00
  792-792_outfall         1.00   0.45  0.00  0.00  0.00  0.00  0.00  0.55  0.00  0.00
  798-798_outfall         1.00   0.61  0.00  0.00  0.00  0.00  0.00  0.39  0.00  0.00
  842-842_outfall         1.00   0.48  0.00  0.00  0.00  0.00  0.00  0.52  0.00  0.00
  877-877_outfall         1.00   0.08  0.00  0.00  0.00  0.00  0.00  0.92  0.00  0.00
  971-971_outfall         1.00   0.66  0.00  0.00  0.00  0.00  0.00  0.34  0.00  0.00
  972-972_outfall         1.00   0.67  0.00  0.00  0.00  0.00  0.00  0.33  0.00  0.00
  975-975_outfall         1.00   0.67  0.00  0.00  0.00  0.00  0.00  0.33  0.00  0.00
  983-983_outfall         1.00   0.67  0.00  0.00  0.00  0.00  0.00  0.33  0.00  0.00
  984-984_outfall         1.00   0.67  0.00  0.00  0.00  0.00  0.00  0.33  0.00  0.00
  987-987_outfall         1.00   0.67  0.00  0.00  0.00  0.00  0.00  0.33  0.00  0.00
  988-988_outfall         1.00   0.67  0.00  0.00  0.00  0.00  0.00  0.33  0.00  0.00
  1054-1054_outfall       1.00   0.47  0.00  0.00  0.00  0.00  0.00  0.53  0.00  0.00
  1063-1063_outfall       1.00   0.67  0.00  0.00  0.00  0.00  0.00  0.33  0.00  0.00
  1064-1064_outfall       1.00   0.67  0.00  0.00  0.00  0.00  0.00  0.33  0.00  0.00
  1086-1086_outfall       1.00   0.67  0.00  0.00  0.00  0.00  0.00  0.33  0.00  0.00
  1229-1229_outfall       1.00   0.66  0.00  0.00  0.00  0.00  0.00  0.34  0.00  0.00
  1234-1234_outfall       1.00   0.30  0.00  0.00  0.00  0.00  0.00  0.70  0.00  0.00
  1278-1278_outfall       1.00   0.54  0.00  0.00  0.00  0.00  0.00  0.46  0.00  0.00
  1332-1332_outfall       1.00   0.47  0.00  0.00  0.00  0.00  0.00  0.53  0.00  0.00
  1412-1412_outfall       1.00   0.43  0.00  0.00  0.00  0.00  0.00  0.57  0.00  0.00
  1413-1413_outfall       1.00   1.00  0.00  0.00  0.00  0.00  0.00  0.00  0.00  0.00
  1414-1414_outfall       1.00   0.67  0.00  0.00  0.00  0.00  0.00  0.33  0.00  0.00
  1415-1415_outfall       1.00   0.67  0.00  0.00  0.00  0.00  0.00  0.33  0.00  0.00
  1416-1416_outfall       1.00   0.67  0.00  0.00  0.00  0.00  0.00  0.33  0.00  0.00
  1417-1417_outfall       1.00   0.67  0.00  0.00  0.00  0.00  0.00  0.33  0.00  0.00
  1582-1582_outfall       1.00   0.58  0.00  0.00  0.00  0.00  0.00  0.42  0.00  0.00
  
  
  *************************
  Conduit Surcharge Summary
  *************************
  
  ----------------------------------------------------------------------------
                                                           Hours        Hours 
                         --------- Hours Full --------   Above Full   Capacity
  Conduit                Both Ends  Upstream  Dnstream   Normal Flow   Limited
  ----------------------------------------------------------------------------
  185-186                     0.01      0.01      0.24      0.01         0.01
  186-559                     0.20      0.20      0.23      0.01         0.01
  187-190                     0.25      0.25      0.26      0.26         0.25
  191-186                     0.01      0.01      0.21      0.01         0.01
  192-187                     0.01      0.01      0.25      0.01         0.01
  193-194                     0.16      0.16      0.19      0.01         0.01
  194-187                     0.23      0.23      0.23      0.04         0.03
  198-193                     0.01      0.01      0.25      0.01         0.01
  206-560                     0.16      0.16      0.18      0.18         0.16
  208-206                     0.01      0.01      0.16      0.01         0.01
  209-206                     0.01      0.01      0.16      0.01         0.01
  220-224                     0.23      0.23      0.26      0.01         0.01
  222-220                     0.01      0.01      0.24      0.01         0.01
  224-225                     0.27      0.27      0.27      0.26         0.25
  225-226                     0.26      0.26      0.28      0.24         0.24
  226-227                     0.27      0.27      0.28      0.28         0.27
  229-230                     0.13      0.13      0.21      0.01         0.01
  230-231                     0.21      0.21      0.22      0.02         0.02
  231-220                     0.22      0.22      0.24      0.01         0.01
  233-229                     0.08      0.08      0.13      0.01         0.01
  246-253                     0.01      0.01      0.87      0.01         0.01
  249-193                     0.01      0.01      0.25      0.01         0.01
  256-253                     0.84      0.84      0.85      0.01         0.01
  266-265                     0.87      0.87      0.87      0.04         0.03
  267-266                     0.16      0.16      0.88      0.01         0.01
  275-274                     0.01      0.01      0.85      0.01         0.01
  296-298                     0.01      0.01      0.87      0.01         0.01
  298-1301                    0.87      0.87      0.88      0.13         0.13
  302-320                     0.27      0.27      0.29      0.01         0.01
  307-308                     0.01      0.01      0.10      0.01         0.01
  308-309                     0.10      0.10      0.26      0.01         0.01
  309-310                     0.26      0.26      0.38      0.01         0.01
  310-1653                    0.33      0.33      0.34      0.01         0.01
  319-302                     0.22      0.22      0.31      0.01         0.01
  320-321                     0.29      0.33      0.29      0.33         0.29
  321-322                     0.01      0.01      0.19      0.01         0.01
  322-323                     0.19      0.19      0.33      0.01         0.01
  323-324                     0.33      0.33      0.88      0.01         0.01
  324-1189                    0.88      0.88      0.89      0.01         0.01
  325-539                     0.34      0.34      0.34      0.35         0.34
  326-325                     0.16      0.16      0.34      0.01         0.01
  327-326                     0.17      0.17      0.19      0.07         0.05
  328-327                     0.17      0.17      0.18      0.06         0.05
  329-328                     0.11      0.11      0.17      0.01         0.01
  330-329                     0.01      0.01      0.11      0.01         0.01
  331-302                     0.27      0.27      0.31      0.18         0.01
  334-319                     0.01      0.01      0.22      0.01         0.01
  341-342                     0.01      0.01      0.25      0.01         0.01
  342-1524                    0.25      0.25      0.26      0.04         0.04
  355-359                     0.11      0.11      0.17      0.01         0.01
  359-361                     0.17      0.17      0.22      0.01         0.01
  361-362                     0.22      0.22      0.22      0.12         0.12
  362-363                     0.14      0.14      0.15      0.15         0.13
  363-794                     0.01      0.01      0.14      0.01         0.01
  374-355                     0.01      0.01      0.11      0.01         0.01
  401-403                     0.01      0.01      0.12      0.01         0.01
  403-404                     0.12      0.12      0.16      0.13         0.11
  422-453                     0.01      0.01      0.01      0.18         0.01
  423-422                     0.12      0.12      0.23      0.01         0.01
  429-431                     0.14      0.14      0.17      0.14         0.14
  431-432                     0.01      0.12      0.01      0.16         0.01
  439-422                     0.01      0.01      0.23      0.01         0.01
  440-439                     0.15      0.16      0.15      0.17         0.15
  477-674                     0.21      0.21      0.26      0.17         0.17
  478-477                     0.20      0.20      0.21      0.01         0.01
  484-478                     0.01      0.01      0.20      0.01         0.01
  516-517                     0.01      0.01      0.17      0.01         0.01
  517-518                     0.01      0.01      0.01      0.07         0.01
  518-1391                    0.05      0.05      0.10      0.10         0.05
  538-310                     0.34      0.34      0.38      0.01         0.01
  539-538                     0.32      0.32      0.33      0.21         0.21
  542-310                     0.27      0.27      0.38      0.02         0.01
  550-551                     0.22      0.22      0.25      0.10         0.01
  551-552                     0.25      0.25      0.30      0.01         0.01
  552-325                     0.28      0.28      0.33      0.01         0.01
  559-877                     0.23      0.23      0.24      0.24         0.23
  560-559                     0.01      0.01      0.28      0.01         0.01
  566-567                     0.76      0.76      0.78      0.01         0.01
  615-664                     0.01      0.03      0.04      0.04         0.01
  616-615                     0.01      0.01      0.03      0.01         0.01
  634-635                     0.01      0.01      0.12      0.01         0.01
  635-636                     0.12      0.12      0.14      0.14         0.12
  660-661                     0.01      0.01      0.88      0.01         0.01
  661-662                     0.88      0.88      0.89      0.23         0.01
  662-616                     0.01      0.01      0.85      0.01         0.01
  663-707                     0.14      0.14      0.14      0.01         0.01
  664-663                     0.01      0.01      0.22      0.01         0.01
  673-615                     0.01      0.01      0.03      0.01         0.01
  674-678                     0.26      0.26      0.28      0.01         0.01
  678-679                     0.28      0.28      0.28      0.16         0.16
  679-680                     0.19      0.19      0.23      0.01         0.01
  680-681                     0.23      0.23      0.27      0.01         0.01
  681-682                     0.27      0.27      0.88      0.18         0.18
  683-684                     0.01      0.01      0.85      0.01         0.01
  692-693                     0.01      0.01      0.87      0.01         0.01
  693-694                     0.87      0.87      0.88      0.01         0.01
  694-695                     0.88      0.88      0.89      0.01         0.01
  695-663                     0.14      0.14      0.89      0.01         0.01
  698-697                     0.01      0.19      0.01      0.01         0.01
  699-698                     0.17      0.17      0.19      0.14         0.13
  707-699                     0.16      0.16      0.17      0.01         0.01
  764-765                     0.01      0.01      0.18      0.01         0.01
  766-767                     0.16      0.18      0.16      0.20         0.16
  770-771                     0.01      0.01      0.18      0.01         0.01
  771-772                     0.18      0.18      0.25      0.01         0.01
  772-773                     0.25      0.25      0.25      0.25         0.25
  774-773                     0.24      0.24      0.24      0.24         0.24
  775-774                     0.01      0.01      0.24      0.01         0.01
  776-775                     0.21      0.21      0.22      0.22         0.21
  777-776                     0.21      0.21      0.22      0.21         0.21
  778-777                     0.08      0.08      0.21      0.03         0.01
  779-778                     0.01      0.01      0.08      0.01         0.01
  794-795                     0.14      0.14      0.16      0.16         0.14
  796-819                     0.01      0.01      0.21      0.01         0.01
  830-368                     0.01      0.01      0.89      0.01         0.01
  871-1340                    0.16      0.16      0.22      0.01         0.01
  872-873                     0.01      0.06      0.01      0.11         0.01
  873-874                     0.01      0.01      0.28      0.01         0.01
  874-876                     0.28      0.28      0.29      0.29         0.28
  876-877                     0.01      0.08      0.01      0.14         0.01
  909-559                     0.26      0.26      0.28      0.05         0.05
  912-909                     0.24      0.24      0.27      0.01         0.01
  913-912                     0.01      0.01      0.24      0.01         0.01
  925-559                     0.01      0.01      0.28      0.01         0.01
  950-267                     0.01      0.01      0.16      0.01         0.01
  980-422                     0.01      0.01      0.23      0.01         0.01
  997-1200                    0.16      0.16      0.19      0.01         0.01
  998-275                     0.89      0.89      0.89      0.41         0.02
  1053-404                    0.22      0.22      0.22      0.22         0.22
  1070-429                    0.01      0.01      0.17      0.01         0.01
  1078-429                    0.01      0.01      0.17      0.01         0.01
  1129-1001                   0.01      0.01      0.88      0.01         0.01
  1130-1129                   0.87      0.87      0.90      0.15         0.01
  1131-1130                   0.86      0.86      0.86      0.01         0.01
  1155-342                    0.01      0.01      0.25      0.01         0.01
  1166-909                    0.01      0.01      0.26      0.01         0.01
  1179-1213                   0.28      0.28      0.29      0.29         0.28
  1181-1180                   0.01      0.12      0.01      0.15         0.01
  1182-1181                   0.21      0.21      0.22      0.22         0.21
  1183-1182                   0.07      0.07      0.21      0.01         0.01
  1184-1183                   0.02      0.02      0.07      0.01         0.01
  1185-1184                   0.01      0.01      0.02      0.01         0.01
  1188-324                    0.86      0.86      0.88      0.01         0.01
  1189-274                    0.01      0.01      0.87      0.01         0.01
  1190-324                    0.86      0.86      0.88      0.01         0.01
  1191-997                    0.01      0.01      0.16      0.01         0.01
  1192-1357                   0.01      0.01      0.29      0.01         0.01
  1193-1192                   0.19      0.19      0.89      0.01         0.01
  1194-1193                   0.20      0.20      0.22      0.08         0.08
  1197-1194                   0.16      0.16      0.20      0.01         0.01
  1198-1197                   0.17      0.17      0.18      0.15         0.14
  1199-1198                   0.17      0.21      0.17      0.22         0.17
  1200-1199                   0.17      0.17      0.19      0.01         0.01
  1202-429                    0.01      0.01      0.17      0.01         0.01
  1203-1179                   0.20      0.20      0.27      0.01         0.01
  1206-1179                   0.01      0.01      0.28      0.01         0.01
  1213-1192                   0.07      0.07      0.88      0.01         0.01
  1256-1234                   0.19      0.19      0.20      0.20         0.19
  1298-1294                   0.01      0.01      0.88      0.01         0.01
  1299-1298                   0.89      0.89      0.89      0.07         0.06
  1300-1299                   0.88      0.88      0.90      0.26         0.01
  1301-1300                   0.88      0.88      0.88      0.01         0.01
  1316-1256                   0.18      0.18      0.20      0.15         0.14
  1317-1316                   0.18      0.24      0.18      0.25         0.18
  1319-1317                   0.22      0.22      0.24      0.01         0.01
  1321-1319                   0.19      0.19      0.20      0.01         0.01
  1330-1331                   0.17      0.17      0.18      0.01         0.01
  1331-1332                   0.20      0.21      0.21      0.22         0.20
  1339-874                    0.26      0.27      0.28      0.09         0.08
  1340-1339                   0.22      0.22      0.27      0.01         0.01
  1347-423                    0.01      0.01      0.12      0.01         0.01
  1348-1192                   0.87      0.87      0.88      0.56         0.01
  1372-796                    0.22      0.22      0.89      0.01         0.01
  1373-1372                   0.88      0.88      0.90      0.01         0.01
  1375-1373                   0.87      0.87      0.88      0.18         0.01
  1379-363                    0.01      0.01      0.15      0.01         0.01
  1391-440                    0.01      0.01      0.19      0.01         0.01
  1405-440                    0.15      0.15      0.19      0.01         0.01
  1406-1405                   0.01      0.01      0.15      0.01         0.01
  1451-542                    0.01      0.01      0.27      0.01         0.01
  1524-542                    0.25      0.25      0.27      0.01         0.01
  1553-298                    0.86      0.86      0.87      0.01         0.01
  1555-1553                   0.85      0.85      0.86      0.01         0.01
  1561-1555                   0.80      0.80      0.85      0.01         0.01
  1562-1561                   0.23      0.23      0.80      0.01         0.01
  1563-1562                   0.16      0.16      0.17      0.01         0.01
  1564-319                    0.01      0.01      0.22      0.01         0.01
  1590-477                    0.01      0.01      0.21      0.01         0.01
  1653-1654                   0.36      0.36      0.36      0.17         0.17
  1654-1655                   0.37      0.37      0.37      0.37         0.37
  1655-1206                   0.17      0.20      0.19      0.19         0.17
  1687-792                    0.01      0.01      0.07      0.07         0.01
  

  Analysis begun on:  Tue Oct  7 13:13:12 2025
  Analysis ended on:  Tue Oct  7 13:13:14 2025
  Total elapsed time: 00:00:02