
  EPA STORM WATER MANAGEMENT MODEL - VERSION 5.2 (Build 5.2.4)
  PYSWMM TOOLKIT API - VERSION v1.0 (2023-11-27)
  ------------------------------------------------------------

  
  ****************
  Analysis Options
  ****************
  Flow Units ............... LPS
  Process Models:
    Rainfall/Runoff ........ YES
    RDII ................... NO
    Snowmelt ............... YES
    Groundwater ............ NO
    Flow Routing ........... YES
    Ponding Allowed ........ NO
    Water Quality .......... NO
  Infiltration Method ...... HORTON
  Flow Routing Method ...... DYNWAVE
  Surcharge Method ......... EXTRAN
  Starting Date ............ 01/01/2000 00:00:00
  Ending Date .............. 01/01/2000 23:59:00
  Antecedent Dry Days ...... 0.0
  Report Time Step ......... 00:15:00
  Wet Time Step ............ 00:05:00
  Dry Time Step ............ 01:00:00
  Routing Time Step ........ 5.00 sec
  Variable Time Step ....... YES
  Maximum Trials ........... 8
  Number of Threads ........ 1
  Head Tolerance ........... 0.001524 m
  
  
  *********************
  Rainfall File Summary
  *********************
  Station    First        Last         Recording   Periods    Periods    Periods
  ID         Date         Date         Frequency  w/Precip    Missing    Malfunc.
  -------------------------------------------------------------------------------
  1          01/01/2000   01/01/2000       5 min         4          0          0

  
  
  **************************        Volume         Depth
  Runoff Quantity Continuity     hectare-m            mm
  **************************     ---------       -------
  Initial Snow Cover .......         0.000         0.000
  Total Precipitation ......         0.020         5.250
  Evaporation Loss .........         0.000         0.000
  Infiltration Loss ........         0.000         0.000
  Surface Runoff ...........         0.020         5.250
  Snow Removed .............         0.000         0.000
  Final Snow Cover .........         0.000         0.000
  Final Storage ............         0.000         0.000
  Continuity Error (%) .....         0.000
  
  
  **************************        Volume        Volume
  Flow Routing Continuity        hectare-m      10^6 ltr
  **************************     ---------     ---------
  Dry Weather Inflow .......         0.000         0.000
  Wet Weather Inflow .......         0.020         0.203
  Groundwater Inflow .......         0.000         0.000
  RDII Inflow ..............         0.000         0.000
  External Inflow ..........         0.000         0.000
  External Outflow .........         0.021         0.205
  Flooding Loss ............         0.000         0.000
  Evaporation Loss .........         0.000         0.000
  Exfiltration Loss ........         0.000         0.000
  Initial Stored Volume ....         0.000         0.000
  Final Stored Volume ......         0.000         0.000
  Continuity Error (%) .....        -1.154
  
  
  *************************
  Highest Continuity Errors
  *************************
  Node G72F834 (-2.01%)
  Node G72F820 (-1.30%)
  
  
  ***************************
  Time-Step Critical Elements
  ***************************
  Link G72F810_G72F800_l1 (5.35%)
  
  
  ********************************
  Highest Flow Instability Indexes
  ********************************
  Link G72F050-G72F050_outfall (35)
  Link G72F830_G72F820_l1 (1)
  Link G72F800_G72F050_l1 (1)
  Link G72F834_G72F830_l1 (1)
  Link G72F835_G72F834_l1 (1)
  
  
  *********************************
  Most Frequent Nonconverging Nodes
  *********************************
  Convergence obtained at all time steps.
  
  
  *************************
  Routing Time Step Summary
  *************************
  Minimum Time Step           :     2.52 sec
  Average Time Step           :     4.95 sec
  Maximum Time Step           :     5.00 sec
  % of Time in Steady State   :     0.00
  Average Iterations per Step :     2.35
  % of Steps Not Converging   :     0.96
  Time Step Frequencies       :
      5.000 -  3.155 sec      :    99.86 %
      3.155 -  1.991 sec      :     0.14 %
      1.991 -  1.256 sec      :     0.00 %
      1.256 -  0.792 sec      :     0.00 %
      0.792 -  0.500 sec      :     0.00 %
  
  
  ***************************
  Subcatchment Runoff Summary
  ***************************
  
  ------------------------------------------------------------------------------------------------------------------------------
                            Total      Total      Total      Total     Imperv       Perv      Total       Total     Peak  Runoff
                           Precip      Runon       Evap      Infil     Runoff     Runoff     Runoff      Runoff   Runoff   Coeff
  Subcatchment                 mm         mm         mm         mm         mm         mm         mm    10^6 ltr      LPS
  ------------------------------------------------------------------------------------------------------------------------------
  G72F810-sub                5.25       0.00       0.00       0.00       2.01       3.24       5.25        0.02    40.21   1.000
  G72F812-sub                5.25       0.00       0.00       0.00       1.74       3.51       5.25        0.01    15.46   1.000
  G72F813-sub                5.25       0.00       0.00       0.00       1.73       3.52       5.25        0.02    28.42   1.000
  G72F050-sub                5.25       0.00       0.00       0.00       3.09       2.16       5.25        0.01    14.49   1.000
  G72F814-sub                5.25       0.00       0.00       0.00       1.85       3.40       5.25        0.02    35.12   1.000
  G72F820-sub                5.25       0.00       0.00       0.00       1.95       3.30       5.25        0.02    28.20   1.000
  G72F821-sub                5.25       0.00       0.00       0.00       1.74       3.51       5.25        0.02    35.92   1.000
  G72F830-sub                5.25       0.00       0.00       0.00       2.15       3.10       5.25        0.01    18.44   1.000
  G72F831-sub                5.25       0.00       0.00       0.00       1.95       3.30       5.25        0.01     9.64   1.000
  G72F832-sub                5.25       0.00       0.00       0.00       1.58       3.67       5.25        0.02    30.62   1.000
  G72F833-sub                5.25       0.00       0.00       0.00       1.44       3.81       5.25        0.02    35.02   1.000
  G72F834-sub                5.25       0.00       0.00       0.00       1.75       3.50       5.25        0.01     9.37   1.000
  G72F835-sub                5.25       0.00       0.00       0.00       1.40       3.85       5.25        0.02    42.26   1.000
  
  
  ******************
  Node Depth Summary
  ******************
  
  ---------------------------------------------------------------------------------
                                 Average  Maximum  Maximum  Time of Max    Reported
                                   Depth    Depth      HGL   Occurrence   Max Depth
  Node                 Type       Meters   Meters   Meters  days hr:min      Meters
  ---------------------------------------------------------------------------------
  G72F050_outfall      OUTFALL      0.00     0.00    14.42     0  00:00        0.00
  G72F820              STORAGE      0.10     0.65    24.02     0  00:16        0.60
  G72F821              STORAGE      0.06     0.53    24.31     0  00:15        0.49
  G72F813              STORAGE      0.02     0.10    25.72     0  00:15        0.10
  G72F831              STORAGE      0.03     0.15    25.58     0  00:15        0.15
  G72F830              STORAGE      0.08     0.53    24.17     0  00:16        0.47
  G72F833              STORAGE      0.02     0.10    28.00     0  00:15        0.10
  G72F832              STORAGE      0.03     0.14    26.98     0  00:15        0.14
  G72F834              STORAGE      0.05     0.39    24.30     0  00:16        0.32
  G72F811              STORAGE      0.04     0.22    23.88     0  00:15        0.21
  G72F814              STORAGE      0.03     0.14    24.91     0  00:15        0.14
  G72F835              STORAGE      0.04     0.28    24.67     0  00:15        0.20
  G72F050              STORAGE      0.01     0.04    19.46     0  00:15        0.04
  G72F812              STORAGE      0.03     0.16    24.69     0  00:15        0.16
  G72F800              STORAGE      0.06     0.25    22.10     0  00:14        0.25
  G72F810              STORAGE      0.11     0.73    23.61     0  00:16        0.70
  
  
  *******************
  Node Inflow Summary
  *******************
  
  -------------------------------------------------------------------------------------------------
                                  Maximum  Maximum                  Lateral       Total        Flow
                                  Lateral    Total  Time of Max      Inflow      Inflow     Balance
                                   Inflow   Inflow   Occurrence      Volume      Volume       Error
  Node                 Type           LPS      LPS  days hr:min    10^6 ltr    10^6 ltr     Percent
  -------------------------------------------------------------------------------------------------
  G72F050_outfall      OUTFALL       0.00   297.85     0  00:15           0       0.205       0.000
  G72F820              STORAGE      28.20   190.26     0  00:12      0.0167       0.124      -1.286
  G72F821              STORAGE      35.92    35.92     0  00:15      0.0212      0.0212       0.282
  G72F813              STORAGE      28.42    28.42     0  00:15      0.0168      0.0168       0.136
  G72F831              STORAGE       9.64    74.91     0  00:15     0.00569      0.0441      -0.556
  G72F830              STORAGE      18.44   135.79     0  00:12      0.0109      0.0861      -0.459
  G72F833              STORAGE      35.02    35.02     0  00:15      0.0207      0.0207       0.144
  G72F832              STORAGE      30.62    65.54     0  00:15      0.0181      0.0387       0.782
  G72F834              STORAGE       9.37    49.98     0  00:14     0.00553      0.0302      -1.967
  G72F811              STORAGE       0.00    78.43     0  00:15           0      0.0464      -0.762
  G72F814              STORAGE      35.12    35.12     0  00:15      0.0207      0.0207       0.570
  G72F835              STORAGE      42.26    42.26     0  00:15       0.025       0.025       1.152
  G72F050              STORAGE      14.49   297.29     0  00:15     0.00856       0.205      -0.216
  G72F812              STORAGE      15.46    78.71     0  00:15     0.00913      0.0465       0.321
  G72F800              STORAGE       0.00   281.74     0  00:16           0       0.196      -0.091
  G72F810              STORAGE      40.21   287.46     0  00:15      0.0238       0.196       0.283
  
  
  **********************
  Node Surcharge Summary
  **********************
  
  No nodes were surcharged.
  
  
  *********************
  Node Flooding Summary
  *********************
  
  No nodes were flooded.
  
  
  **********************
  Storage Volume Summary
  **********************
  
  ------------------------------------------------------------------------------------------------
                         Average    Avg   Evap  Exfil     Maximum    Max    Time of Max    Maximum
                          Volume   Pcnt   Pcnt   Pcnt      Volume   Pcnt     Occurrence    Outflow
  Storage Unit           1000 m³   Full   Loss   Loss     1000 m³   Full    days hr:min        LPS
  ------------------------------------------------------------------------------------------------
  G72F820                  0.000    3.6    0.0    0.0       0.000   23.6       0  00:16     181.08
  G72F821                  0.000    4.7    0.0    0.0       0.000   41.6       0  00:15      32.07
  G72F813                  0.000    0.8    0.0    0.0       0.000    3.8       0  00:15      28.29
  G72F831                  0.000    1.1    0.0    0.0       0.000    5.5       0  00:15      74.07
  G72F830                  0.000    2.4    0.0    0.0       0.000   16.8       0  00:16     133.50
  G72F833                  0.000    0.8    0.0    0.0       0.000    3.6       0  00:15      34.92
  G72F832                  0.000    1.0    0.0    0.0       0.000    5.1       0  00:15      65.36
  G72F834                  0.000    2.3    0.0    0.0       0.000   17.7       0  00:16      48.01
  G72F811                  0.000    1.4    0.0    0.0       0.000    8.4       0  00:15      76.81
  G72F814                  0.000    1.4    0.0    0.0       0.000    6.6       0  00:15      35.03
  G72F835                  0.000    1.9    0.0    0.0       0.000   13.4       0  00:15      40.83
  G72F050                  0.000    0.3    0.0    0.0       0.000    1.5       0  00:15     297.85
  G72F812                  0.000    1.1    0.0    0.0       0.000    5.3       0  00:15      78.43
  G72F800                  0.000    2.1    0.0    0.0       0.000    8.8       0  00:14     282.96
  G72F810                  0.000    4.0    0.0    0.0       0.000   25.8       0  00:16     281.74
  
  
  ***********************
  Outfall Loading Summary
  ***********************
  
  -----------------------------------------------------------
                         Flow       Avg       Max       Total
                         Freq      Flow      Flow      Volume
  Outfall Node           Pcnt       LPS       LPS    10^6 ltr
  -----------------------------------------------------------
  G72F050_outfall       47.19    123.54    297.85       0.205
  -----------------------------------------------------------
  System                47.19    123.54    297.85       0.205
  
  
  ********************
  Link Flow Summary
  ********************
  
  -----------------------------------------------------------------------------
                                 Maximum  Time of Max   Maximum    Max/    Max/
                                  |Flow|   Occurrence   |Veloc|    Full    Full
  Link                 Type          LPS  days hr:min     m/sec    Flow   Depth
  -----------------------------------------------------------------------------
  G72F820_G72F810_l1   CONDUIT    181.08     0  00:19      2.12    0.94    1.00
  G72F821_G72F820_l1   CONDUIT     32.07     0  00:15      1.09    0.87    1.00
  G72F813_G72F812_l1   CONDUIT     28.29     0  00:15      1.34    0.50    0.64
  G72F831_G72F830_l1   CONDUIT     74.07     0  00:15      2.53    0.89    0.88
  G72F830_G72F820_l1   CONDUIT    133.50     0  00:12      1.68    0.81    1.00
  G72F833_G72F832_l1   CONDUIT     34.92     0  00:15      1.76    0.48    0.60
  G72F832_G72F831_l1   CONDUIT     65.36     0  00:15      2.65    0.87    0.74
  G72F834_G72F830_l1   CONDUIT     48.01     0  00:12      1.09    0.80    1.00
  G72F811_G72F810_l1   CONDUIT     76.81     0  00:15      1.70    0.65    0.94
  G72F814_G72F812_l1   CONDUIT     35.03     0  00:15      1.42    0.82    0.73
  G72F835_G72F834_l1   CONDUIT     40.83     0  00:14      1.42    1.02    1.00
  G72F812_G72F811_l1   CONDUIT     78.43     0  00:15      2.39    0.71    0.75
  G72F800_G72F050_l1   CONDUIT    282.96     0  00:15      4.50    1.02    0.91
  G72F810_G72F800_l1   CONDUIT    281.74     0  00:16      4.04    1.19    1.00
  G72F050-G72F050_outfall CONDUIT    297.85     0  00:15      4.18    0.00    0.00
  
  
  ***************************
  Flow Classification Summary
  ***************************
  
  -------------------------------------------------------------------------------------
                      Adjusted    ---------- Fraction of Time in Flow Class ---------- 
                       /Actual         Up    Down  Sub   Sup   Up    Down  Norm  Inlet 
  Conduit               Length    Dry  Dry   Dry   Crit  Crit  Crit  Crit  Ltd   Ctrl  
  -------------------------------------------------------------------------------------
  G72F820_G72F810_l1      1.00   0.08  0.00  0.00  0.25  0.39  0.00  0.28  0.02  0.00
  G72F821_G72F820_l1      1.00   0.08  0.00  0.00  0.88  0.02  0.00  0.01  0.73  0.00
  G72F813_G72F812_l1      1.00   0.08  0.00  0.00  0.59  0.32  0.00  0.01  0.89  0.00
  G72F831_G72F830_l1      1.00   0.08  0.00  0.00  0.58  0.33  0.00  0.00  0.87  0.00
  G72F830_G72F820_l1      1.00   0.08  0.00  0.00  0.69  0.23  0.00  0.00  0.70  0.00
  G72F833_G72F832_l1      1.00   0.08  0.00  0.00  0.57  0.34  0.00  0.01  0.90  0.00
  G72F832_G72F831_l1      1.00   0.08  0.00  0.00  0.42  0.46  0.00  0.03  0.83  0.00
  G72F834_G72F830_l1      1.00   0.08  0.00  0.00  0.91  0.01  0.00  0.00  0.79  0.00
  G72F811_G72F810_l1      1.00   0.08  0.00  0.00  0.68  0.23  0.00  0.00  0.79  0.00
  G72F814_G72F812_l1      1.00   0.08  0.00  0.00  0.60  0.29  0.00  0.03  0.75  0.00
  G72F835_G72F834_l1      1.00   0.08  0.00  0.00  0.69  0.20  0.00  0.03  0.72  0.00
  G72F812_G72F811_l1      1.00   0.08  0.00  0.00  0.34  0.45  0.00  0.13  0.78  0.00
  G72F800_G72F050_l1      1.00   0.09  0.00  0.00  0.00  0.00  0.00  0.91  0.00  0.00
  G72F810_G72F800_l1      1.00   0.08  0.00  0.00  0.00  0.56  0.00  0.36  0.56  0.00
  G72F050-G72F050_outfall    1.00   0.53  0.00  0.00  0.00  0.00  0.00  0.47  0.00  0.00
  
  
  *************************
  Conduit Surcharge Summary
  *************************
  
  ----------------------------------------------------------------------------
                                                           Hours        Hours 
                         --------- Hours Full --------   Above Full   Capacity
  Conduit                Both Ends  Upstream  Dnstream   Normal Flow   Limited
  ----------------------------------------------------------------------------
  G72F820_G72F810_l1          0.12      0.12      0.14      0.01         0.01
  G72F821_G72F820_l1          0.10      0.10      0.18      0.01         0.01
  G72F831_G72F830_l1          0.01      0.01      0.16      0.01         0.01
  G72F830_G72F820_l1          0.08      0.08      0.12      0.01         0.01
  G72F834_G72F830_l1          0.06      0.06      0.11      0.01         0.01
  G72F811_G72F810_l1          0.01      0.01      0.16      0.01         0.01
  G72F835_G72F834_l1          0.04      0.04      0.07      0.02         0.01
  G72F800_G72F050_l1          0.01      0.01      0.04      0.04         0.01
  G72F810_G72F800_l1          0.15      0.15      0.16      0.16         0.15
  

  Analysis begun on:  Mon Mar 31 15:16:47 2025
  Analysis ended on:  Mon Mar 31 15:16:47 2025
  Total elapsed time: < 1 sec